*******************************************************************************

         NASA-GLENN CHEMICAL EQUILIBRIUM PROGRAM CEA2, FEBRUARY 5, 2004
                   BY  BONNIE MCBRIDE AND SANFORD GORDON
      REFS: NASA RP-1311, PART I, 1994 AND NASA RP-1311, PART II, 1996

 *******************************************************************************



  
 ### CEA analysis performed on Wed 13-Dec-2023 16:47:48
  
 # Problem Type: "Assigned Temperature and Pressure"
  
 prob case=_______________6029 tp   ions
  
 # Pressure (22 values):
 p,bar= 0.1, 1, 2, 3, 4, 5, 6, 7, 8, 9, 10, 11, 12, 13, 14, 15, 16, 17, 18, 19, 2
 0, 25
 # Temperature (19 values):
 t,k= 1000, 2000, 3000, 4000, 5000, 6000, 7000, 8000, 9000, 10000, 11000, 12000, 
 13000, 14000, 15000, 16000, 17000, 18000, 19000
  
 # Oxidizer/Fuel Wt. ratio (1 value):
 o/f= 1
  
 # You selected the following fuels and oxidizers:
 reac
 fuel Ar                wt%=100.0000
 oxid Ar                wt%=100.0000
  
 # You selected these options for output:
 # short version of output
 output short
 # Proportions of any products will be expressed as Mole Fractions.
 # Heat will be expressed as siunits
 output siunits
 # Plot parameters:
 output plot p t cp h m mw gam rho
  
  
 # Input prepared by this script:/var/www/sites/cearun.grc.nasa.gov/cgi-bin/CEARU
 N/prepareInputFile.cgi
  
 ### IMPORTANT:  The following line is the end of your CEA input file!
 end




               THERMODYNAMIC EQUILIBRIUM PROPERTIES AT ASSIGNED

                           TEMPERATURE AND PRESSURE

 CASE = _______________

             REACTANT                    WT FRACTION      ENERGY      TEMP
                                          (SEE NOTE)     KJ/KG-MOL      K  
 FUEL        Ar                           1.0000000         0.000      0.000
 OXIDANT     Ar                           1.0000000         0.000      0.000

 O/F=    1.00000  %FUEL= 50.000000  R,EQ.RATIO= 0.000000  PHI,EQ.RATIO= 0.000000

 THERMODYNAMIC PROPERTIES

 P, BAR           0.10000  0.10000  0.10000  0.10000  0.10000  0.10000  0.10000  0.10000
 T, K             1000.00  2000.00  3000.00  4000.00  5000.00  6000.00  7000.00  8000.00
 RHO, KG/CU M    4.8046-2 2.4023-2 1.6015-2 1.2012-2 9.6092-3 8.0071-3 6.8581-3 5.9759-3
 H, KJ/KG          365.20   885.53  1405.86  1926.20  2446.54  2970.02  3522.21  4219.27
 U, KJ/KG          157.06   469.26   781.46  1093.66  1405.87  1721.12  2064.08  2545.88
 G, KJ/KG        -4619.94 -9806.08 -15264.5 -20899.7 -26666.4 -32538.0 -38498.9 -44546.3
 S, KJ/(KG)(K)     4.9851   5.3458   5.5568   5.7065   5.8226   5.9180   6.0030   6.0957

 M, (1/n)          39.948   39.948   39.948   39.948   39.948   39.945   39.915   39.749
 (dLV/dLP)t      -1.00000 -1.00000 -1.00000 -1.00000 -1.00000 -1.00004 -1.00041 -1.00249
 (dLV/dLT)p        1.0000   1.0000   1.0000   1.0000   1.0000   1.0013   1.0118   1.0632
 Cp, KJ/(KG)(K)    0.5203   0.5203   0.5203   0.5203   0.5204   0.5291   0.5913   0.8588
 GAMMAs            1.6667   1.6667   1.6667   1.6667   1.6666   1.6512   1.5631   1.3753
 SON VEL,M/SEC      589.0    832.9   1020.1   1177.9   1317.0   1436.0   1509.7   1517.0

 MOLE FRACTIONS

 *e-              0.00000  0.00000  0.00000  0.00000  0.00000  0.00008  0.00082  0.00497
 *Ar              1.00000  1.00000  1.00000  1.00000  1.00000  0.99985  0.99836  0.99005
 *Ar+             0.00000  0.00000  0.00000  0.00000  0.00000  0.00008  0.00082  0.00497

  * THERMODYNAMIC PROPERTIES FITTED TO 20000.K

 NOTE. WEIGHT FRACTION OF FUEL IN TOTAL FUELS AND OF OXIDANT IN TOTAL OXIDANTS









               THERMODYNAMIC EQUILIBRIUM PROPERTIES AT ASSIGNED

                           TEMPERATURE AND PRESSURE

 CASE = _______________

             REACTANT                    WT FRACTION      ENERGY      TEMP
                                          (SEE NOTE)     KJ/KG-MOL      K  
 FUEL        Ar                           1.0000000         0.000      0.000
 OXIDANT     Ar                           1.0000000         0.000      0.000

 O/F=    1.00000  %FUEL= 50.000000  R,EQ.RATIO= 0.000000  PHI,EQ.RATIO= 0.000000

 THERMODYNAMIC PROPERTIES

 P, BAR           0.10000  0.10000  0.10000  0.10000  0.10000  0.10000  0.10000  0.10000
 T, K             9000.00 10000.00 11000.00 12000.00 13000.00 14000.00 15000.00 16000.00
 RHO, KG/CU M    5.2302-3 4.5101-3 3.7416-3 2.9559-3 2.3067-3 1.8986-3 1.6704-3 1.5285-3
 H, KJ/KG         5415.37  7883.84  12922.5  21851.4  33695.0  43868.7  49869.4  53057.8
 U, KJ/KG         3503.40  5666.58  10249.9  18468.3  29359.9  38601.8  43882.8  46515.3
 G, KJ/KG        -50705.7 -57056.8 -63767.0 -71101.4 -79320.8 -88421.0 -98102.4-108081.5
 S, KJ/(KG)(K)     6.2357   6.4941   6.9718   7.7461   8.6935   9.4493   9.8648  10.0712

 M, (1/n)          39.138   37.499   34.221   29.492   24.933   22.101   20.833   20.334
 (dLV/dLP)t      -1.01014 -1.03052 -1.06967 -1.11442 -1.11978 -1.07771 -1.03782 -1.01706
 (dLV/dLT)p        1.2319   1.6363   2.3362   3.0350   2.9887   2.2110   1.5556   1.2370
 Cp, KJ/(KG)(K)    1.6597   3.4980   6.8383  10.9168  11.8562   8.0516   4.2650   2.3774
 GAMMAs            1.2257   1.1617   1.1419   1.1409   1.1514   1.1775   1.2325   1.3265
 SON VEL,M/SEC     1530.8   1604.9   1746.9   1964.6   2234.1   2490.3   2716.3   2945.9

 MOLE FRACTIONS

 *e-              0.02028  0.06131  0.14337  0.26174  0.37586  0.44676  0.47850  0.49100
 *Ar              0.95944  0.87739  0.71327  0.47652  0.24827  0.10647  0.04299  0.01800
 *Ar+             0.02028  0.06131  0.14337  0.26174  0.37586  0.44676  0.47850  0.49100

  * THERMODYNAMIC PROPERTIES FITTED TO 20000.K

 NOTE. WEIGHT FRACTION OF FUEL IN TOTAL FUELS AND OF OXIDANT IN TOTAL OXIDANTS









               THERMODYNAMIC EQUILIBRIUM PROPERTIES AT ASSIGNED

                           TEMPERATURE AND PRESSURE

 CASE = _______________

             REACTANT                    WT FRACTION      ENERGY      TEMP
                                          (SEE NOTE)     KJ/KG-MOL      K  
 FUEL        Ar                           1.0000000         0.000      0.000
 OXIDANT     Ar                           1.0000000         0.000      0.000

 O/F=    1.00000  %FUEL= 50.000000  R,EQ.RATIO= 0.000000  PHI,EQ.RATIO= 0.000000

 THERMODYNAMIC PROPERTIES

 P, BAR           0.10000  0.10000  0.10000   1.0000   1.0000   1.0000   1.0000   1.0000
 T, K            17000.00 18000.00 19000.00  1000.00  2000.00  3000.00  4000.00  5000.00
 RHO, KG/CU M    1.4245-3 1.3398-3 1.2669-3 4.8046-1 2.4023-1 1.6015-1 1.2012-1 9.6092-2
 H, KJ/KG         54991.9  56422.9  57651.6   365.20   885.53  1405.86  1926.20  2446.57
 U, KJ/KG         47972.1  48959.3  49758.6   157.06   469.26   781.46  1093.66  1405.90
 G, KJ/KG       -118215.9-128447.4-138752.1 -4140.70 -8847.59 -13826.7 -18982.7 -24270.2
 S, KJ/(KG)(K)    10.1887  10.2706  10.3370   4.5059   4.8666   5.0775   5.2272   5.3433

 M, (1/n)          20.136   20.052   20.015   39.948   39.948   39.948   39.948   39.948
 (dLV/dLP)t      -1.00789 -1.00387 -1.00202 -1.00000 -1.00000 -1.00000 -1.00000 -1.00000
 (dLV/dLT)p        1.1040   1.0484   1.0240   1.0000   1.0000   1.0000   1.0000   1.0000
 Cp, KJ/(KG)(K)    1.6076   1.3004   1.1754   0.5203   0.5203   0.5203   0.5203   0.5205
 GAMMAs            1.4392   1.5305   1.5838   1.6667   1.6667   1.6667   1.6667   1.6664
 SON VEL,M/SEC     3178.5   3379.8   3535.7    589.0    832.9   1020.1   1177.9   1316.9

 MOLE FRACTIONS

 *e-              0.49596  0.49804  0.49899  0.00000  0.00000  0.00000  0.00000  0.00000
 *Ar              0.00809  0.00391  0.00203  1.00000  1.00000  1.00000  1.00000  1.00000
 *Ar+             0.49596  0.49804  0.49899  0.00000  0.00000  0.00000  0.00000  0.00000

  * THERMODYNAMIC PROPERTIES FITTED TO 20000.K

 NOTE. WEIGHT FRACTION OF FUEL IN TOTAL FUELS AND OF OXIDANT IN TOTAL OXIDANTS









               THERMODYNAMIC EQUILIBRIUM PROPERTIES AT ASSIGNED

                           TEMPERATURE AND PRESSURE

 CASE = _______________

             REACTANT                    WT FRACTION      ENERGY      TEMP
                                          (SEE NOTE)     KJ/KG-MOL      K  
 FUEL        Ar                           1.0000000         0.000      0.000
 OXIDANT     Ar                           1.0000000         0.000      0.000

 O/F=    1.00000  %FUEL= 50.000000  R,EQ.RATIO= 0.000000  PHI,EQ.RATIO= 0.000000

 THERMODYNAMIC PROPERTIES

 P, BAR            1.0000   1.0000   1.0000   1.0000   1.0000   1.0000   1.0000   1.0000
 T, K             6000.00  7000.00  8000.00  9000.00 10000.00 11000.00 12000.00 13000.00
 RHO, KG/CU M    8.0075-2 6.8619-2 5.9963-2 5.3037-2 4.7072-2 4.1456-2 3.5779-2 2.9998-2
 H, KJ/KG         2967.86  3498.70  4074.56  4808.69  5947.94  7927.78  11390.8  17064.5
 U, KJ/KG         1719.03  2041.39  2406.86  2923.22  3823.54  5515.59  8595.84  13730.9
 G, KJ/KG        -29662.4 -35142.5 -40701.0 -46339.4 -52078.2 -57967.3 -64096.6 -70599.9
 S, KJ/(KG)(K)     5.4384   5.5202   5.5969   5.6831   5.8026   5.9905   6.2906   6.7434

 M, (1/n)          39.947   39.938   39.885   39.688   39.138   37.916   35.698   32.424
 (dLV/dLP)t      -1.00001 -1.00013 -1.00079 -1.00325 -1.01013 -1.02537 -1.05244 -1.08910
 (dLV/dLT)p        1.0004   1.0037   1.0201   1.0744   1.2112   1.4865   1.9327   2.4793
 Cp, KJ/(KG)(K)    0.5231   0.5428   0.6270   0.8814   1.4692   2.5990   4.4561   6.9595
 GAMMAs            1.6617   1.6295   1.5271   1.3720   1.2531   1.1920   1.1666   1.1593
 SON VEL,M/SEC     1440.5   1541.0   1595.9   1608.3   1631.6   1695.7   1805.7   1965.8

 MOLE FRACTIONS

 *e-              0.00002  0.00026  0.00158  0.00650  0.02027  0.05088  0.10639  0.18833
 *Ar              0.99995  0.99948  0.99684  0.98699  0.95945  0.89825  0.78723  0.62334
 *Ar+             0.00002  0.00026  0.00158  0.00650  0.02027  0.05088  0.10639  0.18833

  * THERMODYNAMIC PROPERTIES FITTED TO 20000.K

 NOTE. WEIGHT FRACTION OF FUEL IN TOTAL FUELS AND OF OXIDANT IN TOTAL OXIDANTS









               THERMODYNAMIC EQUILIBRIUM PROPERTIES AT ASSIGNED

                           TEMPERATURE AND PRESSURE

 CASE = _______________

             REACTANT                    WT FRACTION      ENERGY      TEMP
                                          (SEE NOTE)     KJ/KG-MOL      K  
 FUEL        Ar                           1.0000000         0.000      0.000
 OXIDANT     Ar                           1.0000000         0.000      0.000

 O/F=    1.00000  %FUEL= 50.000000  R,EQ.RATIO= 0.000000  PHI,EQ.RATIO= 0.000000

 THERMODYNAMIC PROPERTIES

 P, BAR            1.0000   1.0000   1.0000   1.0000   1.0000   1.0000   2.0000   2.0000
 T, K            14000.00 15000.00 16000.00 17000.00 18000.00 19000.00  1000.00  2000.00
 RHO, KG/CU M    2.4560-2 2.0152-2 1.7094-2 1.5134-2 1.3835-2 1.2891-2 9.6092-1 4.8046-1
 H, KJ/KG         25240.8  34823.3  43434.6  49564.2  53476.5  56032.5   365.20   885.53
 U, KJ/KG         21169.1  29861.0  37584.7  42956.4  46248.3  48275.4   157.06   469.26
 G, KJ/KG        -77635.3 -85316.1 -93617.9-102384.8-111444.6-120681.2 -3996.43 -8559.05
 S, KJ/(KG)(K)     7.3483   8.0093   8.5658   8.9382   9.1623   9.3007   4.3616   4.7223

 M, (1/n)          28.589   25.133   22.741   21.391   20.705   20.365   39.948   39.948
 (dLV/dLP)t      -1.11973 -1.12100 -1.09207 -1.05746 -1.03282 -1.01847 -1.00000 -1.00000
 (dLV/dLT)p        2.8659   2.7774   2.2792   1.7571   1.4108   1.2200   1.0000   1.0000
 Cp, KJ/(KG)(K)    9.2153   9.5039   7.4502   4.8822   3.0987   2.1205   0.5203   0.5203
 GAMMAs            1.1621   1.1731   1.1945   1.2320   1.2905   1.3663   1.6667   1.6667
 SON VEL,M/SEC     2175.2   2412.7   2643.5   2853.2   3054.2   3255.6    589.0    832.9

 MOLE FRACTIONS

 *e-              0.28435  0.37087  0.43073  0.46453  0.48170  0.49021  0.00000  0.00000
 *Ar              0.43130  0.25827  0.13853  0.07094  0.03661  0.01959  1.00000  1.00000
 *Ar+             0.28435  0.37087  0.43073  0.46453  0.48170  0.49021  0.00000  0.00000

  * THERMODYNAMIC PROPERTIES FITTED TO 20000.K

 NOTE. WEIGHT FRACTION OF FUEL IN TOTAL FUELS AND OF OXIDANT IN TOTAL OXIDANTS









               THERMODYNAMIC EQUILIBRIUM PROPERTIES AT ASSIGNED

                           TEMPERATURE AND PRESSURE

 CASE = _______________

             REACTANT                    WT FRACTION      ENERGY      TEMP
                                          (SEE NOTE)     KJ/KG-MOL      K  
 FUEL        Ar                           1.0000000         0.000      0.000
 OXIDANT     Ar                           1.0000000         0.000      0.000

 O/F=    1.00000  %FUEL= 50.000000  R,EQ.RATIO= 0.000000  PHI,EQ.RATIO= 0.000000

 THERMODYNAMIC PROPERTIES

 P, BAR            2.0000   2.0000   2.0000   2.0000   2.0000   2.0000   2.0000   2.0000
 T, K             3000.00  4000.00  5000.00  6000.00  7000.00  8000.00  9000.00 10000.00
 RHO, KG/CU M    3.2031-1 2.4023-1 1.9218-1 1.6015-1 1.3725-1 1.1998-1 1.0628-1 9.4706-2
 H, KJ/KG         1405.86  1926.20  2446.56  2967.57  3495.51  4054.95  4726.49  5685.04
 U, KJ/KG          781.46  1093.66  1405.89  1718.75  2038.31  2388.03  2844.62  3573.25
 G, KJ/KG        -13393.9 -18405.6 -23548.8 -28796.8 -34132.4 -39545.3 -45033.8 -50610.3
 S, KJ/(KG)(K)     4.9333   5.0830   5.1991   5.2941   5.3754   5.4500   5.5289   5.6295

 M, (1/n)          39.948   39.948   39.948   39.947   39.941   39.903   39.764   39.372
 (dLV/dLP)t      -1.00000 -1.00000 -1.00000 -1.00001 -1.00009 -1.00056 -1.00230 -1.00721
 (dLV/dLT)p        1.0000   1.0000   1.0000   1.0003   1.0026   1.0142   1.0527   1.1503
 Cp, KJ/(KG)(K)    0.5203   0.5203   0.5204   0.5223   0.5362   0.5956   0.7759   1.1922
 GAMMAs            1.6667   1.6667   1.6665   1.6631   1.6399   1.5608   1.4211   1.2939
 SON VEL,M/SEC     1020.1   1177.9   1316.9   1441.2   1545.9   1613.0   1635.4   1653.0

 MOLE FRACTIONS

 *e-              0.00000  0.00000  0.00000  0.00002  0.00018  0.00112  0.00461  0.01442
 *Ar              1.00000  1.00000  1.00000  0.99997  0.99963  0.99777  0.99078  0.97116
 *Ar+             0.00000  0.00000  0.00000  0.00002  0.00018  0.00112  0.00461  0.01442

  * THERMODYNAMIC PROPERTIES FITTED TO 20000.K

 NOTE. WEIGHT FRACTION OF FUEL IN TOTAL FUELS AND OF OXIDANT IN TOTAL OXIDANTS









               THERMODYNAMIC EQUILIBRIUM PROPERTIES AT ASSIGNED

                           TEMPERATURE AND PRESSURE

 CASE = _______________

             REACTANT                    WT FRACTION      ENERGY      TEMP
                                          (SEE NOTE)     KJ/KG-MOL      K  
 FUEL        Ar                           1.0000000         0.000      0.000
 OXIDANT     Ar                           1.0000000         0.000      0.000

 O/F=    1.00000  %FUEL= 50.000000  R,EQ.RATIO= 0.000000  PHI,EQ.RATIO= 0.000000

 THERMODYNAMIC PROPERTIES

 P, BAR            2.0000   2.0000   2.0000   2.0000   2.0000   2.0000   2.0000   2.0000
 T, K            11000.00 12000.00 13000.00 14000.00 15000.00 16000.00 17000.00 18000.00
 RHO, KG/CU M    8.4164-2 7.3839-2 6.3376-2 5.3094-2 4.3921-2 3.6771-2 3.1814-2 2.8519-2
 H, KJ/KG         7239.63  9855.16  14112.6  20491.6  28819.0  37727.3  45332.4  50779.8
 U, KJ/KG         4863.32  7146.56  10956.8  16724.7  24265.4  32288.2  39045.8  43767.0
 G, KJ/KG        -56308.5 -62190.9 -68354.0 -74922.6 -82019.6 -89701.7 -97909.3-106502.9
 S, KJ/(KG)(K)     5.7771   6.0038   6.3436   6.8153   7.3892   7.9643   8.4260   8.7379

 M, (1/n)          38.488   36.836   34.251   30.902   27.389   24.458   22.484   21.341
 (dLV/dLP)t      -1.01825 -1.03867 -1.06933 -1.10352 -1.12414 -1.11612 -1.08671 -1.05586
 (dLV/dLT)p        1.3499   1.6878   2.1511   2.6133   2.8236   2.6133   2.1423   1.6992
 Cp, KJ/(KG)(K)    1.9948   3.3361   5.2682   7.4741   8.9419   8.5255   6.5422   4.4294
 GAMMAs            1.2182   1.1821   1.1681   1.1660   1.1717   1.1851   1.2088   1.2470
 SON VEL,M/SEC     1701.4   1789.4   1919.9   2095.7   2309.9   2538.9   2756.6   2957.2

 MOLE FRACTIONS

 *e-              0.03654  0.07790  0.14261  0.22645  0.31440  0.38774  0.43717  0.46577
 *Ar              0.92691  0.84420  0.71479  0.54709  0.37121  0.22452  0.12565  0.06845
 *Ar+             0.03654  0.07790  0.14261  0.22645  0.31440  0.38774  0.43717  0.46577

  * THERMODYNAMIC PROPERTIES FITTED TO 20000.K

 NOTE. WEIGHT FRACTION OF FUEL IN TOTAL FUELS AND OF OXIDANT IN TOTAL OXIDANTS









               THERMODYNAMIC EQUILIBRIUM PROPERTIES AT ASSIGNED

                           TEMPERATURE AND PRESSURE

 CASE = _______________

             REACTANT                    WT FRACTION      ENERGY      TEMP
                                          (SEE NOTE)     KJ/KG-MOL      K  
 FUEL        Ar                           1.0000000         0.000      0.000
 OXIDANT     Ar                           1.0000000         0.000      0.000

 O/F=    1.00000  %FUEL= 50.000000  R,EQ.RATIO= 0.000000  PHI,EQ.RATIO= 0.000000

 THERMODYNAMIC PROPERTIES

 P, BAR            2.0000   3.0000   3.0000   3.0000   3.0000   3.0000   3.0000   3.0000
 T, K            19000.00  1000.00  2000.00  3000.00  4000.00  5000.00  6000.00  7000.00
 RHO, KG/CU M    2.6242-2 1.4414 0 7.2069-1 4.8046-1 3.6035-1 2.8828-1 2.4023-1 2.0588-1
 H, KJ/KG         54416.4   365.20   885.53  1405.86  1926.20  2446.55  2967.44  3494.10
 U, KJ/KG         46794.9   157.06   469.26   781.46  1093.66  1405.89  1718.62  2036.95
 G, KJ/KG       -115346.8 -3912.04 -8390.27 -13140.8 -18068.1 -23126.9 -28290.4 -33541.6
 S, KJ/(KG)(K)     8.9349   4.2772   4.6379   4.8489   4.9986   5.1147   5.2096   5.2908

 M, (1/n)          20.728   39.948   39.948   39.948   39.948   39.948   39.947   39.942
 (dLV/dLP)t      -1.03372 -1.00000 -1.00000 -1.00000 -1.00000 -1.00000 -1.00001 -1.00008
 (dLV/dLT)p        1.4017   1.0000   1.0000   1.0000   1.0000   1.0000   1.0002   1.0022
 Cp, KJ/(KG)(K)    2.9635   0.5203   0.5203   0.5203   0.5203   0.5204   0.5219   0.5333
 GAMMAs            1.3025   1.6667   1.6667   1.6667   1.6667   1.6665   1.6638   1.6446
 SON VEL,M/SEC     3150.6    589.0    832.9   1020.1   1177.9   1316.9   1441.4   1548.1

 MOLE FRACTIONS

 *e-              0.48113  0.00000  0.00000  0.00000  0.00000  0.00000  0.00001  0.00015
 *Ar              0.03774  1.00000  1.00000  1.00000  1.00000  1.00000  0.99997  0.99970
 *Ar+             0.48113  0.00000  0.00000  0.00000  0.00000  0.00000  0.00001  0.00015

  * THERMODYNAMIC PROPERTIES FITTED TO 20000.K

 NOTE. WEIGHT FRACTION OF FUEL IN TOTAL FUELS AND OF OXIDANT IN TOTAL OXIDANTS









               THERMODYNAMIC EQUILIBRIUM PROPERTIES AT ASSIGNED

                           TEMPERATURE AND PRESSURE

 CASE = _______________

             REACTANT                    WT FRACTION      ENERGY      TEMP
                                          (SEE NOTE)     KJ/KG-MOL      K  
 FUEL        Ar                           1.0000000         0.000      0.000
 OXIDANT     Ar                           1.0000000         0.000      0.000

 O/F=    1.00000  %FUEL= 50.000000  R,EQ.RATIO= 0.000000  PHI,EQ.RATIO= 0.000000

 THERMODYNAMIC PROPERTIES

 P, BAR            3.0000   3.0000   3.0000   3.0000   3.0000   3.0000   3.0000   3.0000
 T, K             8000.00  9000.00 10000.00 11000.00 12000.00 13000.00 14000.00 15000.00
 RHO, KG/CU M    1.8001-1 1.5955-1 1.4244-1 1.2710-1 1.1236-1 9.7565-2 8.2861-2 6.9217-2
 H, KJ/KG         4046.27  4690.07  5568.55  6934.34  9170.17  12769.7  18210.6  25595.2
 U, KJ/KG         2379.68  2809.79  3462.35  4573.95  6500.08  9694.85  14590.1  21261.0
 G, KJ/KG        -38869.5 -44271.1 -49755.2 -55348.3 -61100.7 -67091.3 -73425.7 -80218.4
 S, KJ/(KG)(K)     5.3645   5.4401   5.5324   5.6621   5.8559   6.1432   6.5454   7.0542

 M, (1/n)          39.912   39.798   39.476   38.748   37.367   35.152   32.151   28.775
 (dLV/dLP)t      -1.00046 -1.00188 -1.00590 -1.01501 -1.03215 -1.05891 -1.09185 -1.11876
 (dLV/dLT)p        1.0116   1.0431   1.1231   1.2878   1.5717   1.9781   2.4314   2.7446
 Cp, KJ/(KG)(K)    0.5817   0.7292   1.0695   1.7261   2.8296   4.4549   6.4545   8.1840
 GAMMAs            1.5774   1.4490   1.3201   1.2364   1.1935   1.1749   1.1696   1.1726
 SON VEL,M/SEC     1621.4   1650.6   1667.5   1708.3   1785.1   1900.7   2057.8   2254.4

 MOLE FRACTIONS

 *e-              0.00091  0.00377  0.01181  0.03005  0.06460  0.12005  0.19518  0.27968
 *Ar              0.99818  0.99247  0.97639  0.93991  0.87080  0.75989  0.60964  0.44064
 *Ar+             0.00091  0.00377  0.01181  0.03005  0.06460  0.12005  0.19518  0.27968

  * THERMODYNAMIC PROPERTIES FITTED TO 20000.K

 NOTE. WEIGHT FRACTION OF FUEL IN TOTAL FUELS AND OF OXIDANT IN TOTAL OXIDANTS









               THERMODYNAMIC EQUILIBRIUM PROPERTIES AT ASSIGNED

                           TEMPERATURE AND PRESSURE

 CASE = _______________

             REACTANT                    WT FRACTION      ENERGY      TEMP
                                          (SEE NOTE)     KJ/KG-MOL      K  
 FUEL        Ar                           1.0000000         0.000      0.000
 OXIDANT     Ar                           1.0000000         0.000      0.000

 O/F=    1.00000  %FUEL= 50.000000  R,EQ.RATIO= 0.000000  PHI,EQ.RATIO= 0.000000

 THERMODYNAMIC PROPERTIES

 P, BAR            3.0000   3.0000   3.0000   3.0000   4.0000   4.0000   4.0000   4.0000
 T, K            16000.00 17000.00 18000.00 19000.00  1000.00  2000.00  3000.00  4000.00
 RHO, KG/CU M    5.7913-2 4.9596-2 4.3905-2 4.0004-2 1.9218 0 9.6092-1 6.4062-1 4.8046-1
 H, KJ/KG         34130.2  42200.6  48528.8  52961.8   365.20   885.53  1405.86  1926.20
 U, KJ/KG         28950.0  36151.7  41695.8  45462.4   157.06   469.26   781.46  1093.66
 G, KJ/KG        -87548.7 -95407.4-103694.5-112280.1 -3852.16 -8270.52 -12961.1 -17828.6
 S, KJ/(KG)(K)     7.6049   8.0946   8.4568   8.6969   4.2174   4.5780   4.7890   4.9387

 M, (1/n)          25.681   23.367   21.903   21.065   39.948   39.948   39.948   39.948
 (dLV/dLP)t      -1.12346 -1.10304 -1.07255 -1.04644 -1.00000 -1.00000 -1.00000 -1.00000
 (dLV/dLT)p        2.7153   2.3576   1.9082   1.5532   1.0000   1.0000   1.0000   1.0000
 Cp, KJ/(KG)(K)    8.5921   7.3196   5.3234   3.6394   0.5203   0.5203   0.5203   0.5203
 GAMMAs            1.1825   1.2007   1.2302   1.2742   1.6667   1.6667   1.6667   1.6667
 SON VEL,M/SEC     2475.0   2695.0   2899.2   3091.2    589.0    832.9   1020.1   1177.9

 MOLE FRACTIONS

 *e-              0.35714  0.41505  0.45171  0.47268  0.00000  0.00000  0.00000  0.00000
 *Ar              0.28572  0.16989  0.09657  0.05463  1.00000  1.00000  1.00000  1.00000
 *Ar+             0.35714  0.41505  0.45171  0.47268  0.00000  0.00000  0.00000  0.00000

  * THERMODYNAMIC PROPERTIES FITTED TO 20000.K

 NOTE. WEIGHT FRACTION OF FUEL IN TOTAL FUELS AND OF OXIDANT IN TOTAL OXIDANTS









               THERMODYNAMIC EQUILIBRIUM PROPERTIES AT ASSIGNED

                           TEMPERATURE AND PRESSURE

 CASE = _______________

             REACTANT                    WT FRACTION      ENERGY      TEMP
                                          (SEE NOTE)     KJ/KG-MOL      K  
 FUEL        Ar                           1.0000000         0.000      0.000
 OXIDANT     Ar                           1.0000000         0.000      0.000

 O/F=    1.00000  %FUEL= 50.000000  R,EQ.RATIO= 0.000000  PHI,EQ.RATIO= 0.000000

 THERMODYNAMIC PROPERTIES

 P, BAR            4.0000   4.0000   4.0000   4.0000   4.0000   4.0000   4.0000   4.0000
 T, K             5000.00  6000.00  7000.00  8000.00  9000.00 10000.00 11000.00 12000.00
 RHO, KG/CU M    3.8437-1 3.2030-1 2.7451-1 2.4004-1 2.1284-1 1.9022-1 1.7015-1 1.5111-1
 H, KJ/KG         2446.55  2967.36  3493.26  4041.09  4668.36  5499.10  6752.26  8760.75
 U, KJ/KG         1405.88  1718.55  2036.14  2374.71  2789.03  3396.23  4401.36  6113.68
 G, KJ/KG        -22827.5 -27931.2 -33122.4 -38390.1 -43730.4 -49149.8 -54670.7 -60336.0
 S, KJ/(KG)(K)     5.0548   5.1498   5.2308   5.3039   5.3776   5.4649   5.5839   5.7581

 M, (1/n)          39.948   39.948   39.943   39.916   39.818   39.539   38.904   37.692
 (dLV/dLP)t      -1.00000 -1.00001 -1.00006 -1.00039 -1.00163 -1.00512 -1.01306 -1.02813
 (dLV/dLT)p        1.0000   1.0002   1.0019   1.0100   1.0373   1.1067   1.2504   1.5003
 Cp, KJ/(KG)(K)    0.5204   0.5217   0.5315   0.5734   0.7013   0.9963   1.5656   2.5253
 GAMMAs            1.6665   1.6642   1.6475   1.5879   1.4679   1.3394   1.2506   1.2026
 SON VEL,M/SEC     1316.9   1441.6   1549.4   1626.7   1660.9   1678.3   1714.6   1784.2

 MOLE FRACTIONS

 *e-              0.00000  0.00001  0.00013  0.00079  0.00326  0.01024  0.02613  0.05647
 *Ar              1.00000  0.99998  0.99974  0.99842  0.99347  0.97952  0.94774  0.88707
 *Ar+             0.00000  0.00001  0.00013  0.00079  0.00326  0.01024  0.02613  0.05647

  * THERMODYNAMIC PROPERTIES FITTED TO 20000.K

 NOTE. WEIGHT FRACTION OF FUEL IN TOTAL FUELS AND OF OXIDANT IN TOTAL OXIDANTS









               THERMODYNAMIC EQUILIBRIUM PROPERTIES AT ASSIGNED

                           TEMPERATURE AND PRESSURE

 CASE = _______________

             REACTANT                    WT FRACTION      ENERGY      TEMP
                                          (SEE NOTE)     KJ/KG-MOL      K  
 FUEL        Ar                           1.0000000         0.000      0.000
 OXIDANT     Ar                           1.0000000         0.000      0.000

 O/F=    1.00000  %FUEL= 50.000000  R,EQ.RATIO= 0.000000  PHI,EQ.RATIO= 0.000000

 THERMODYNAMIC PROPERTIES

 P, BAR            4.0000   4.0000   4.0000   4.0000   4.0000   4.0000   4.0000   5.0000
 T, K            13000.00 14000.00 15000.00 16000.00 17000.00 18000.00 19000.00  1000.00
 RHO, KG/CU M    1.3218-1 1.1330-1 9.5417-2 8.0032-2 6.8215-2 5.9881-2 5.4137-2 2.4023 0
 H, KJ/KG         11961.0  16806.1  23508.6  31598.4  39762.2  46612.8  51643.4   365.20
 U, KJ/KG         8934.78  13275.7  19316.5  26600.4  33898.4  39932.9  44254.7   157.06
 G, KJ/KG        -66213.9 -72397.4 -78992.3 -86084.8 -93693.7-101750.3-110138.0 -3805.72
 S, KJ/(KG)(K)     6.0135   6.3717   6.8334   7.3552   7.8503   8.2424   8.5148   4.1709

 M, (1/n)          35.718   32.972   29.750   26.617   24.105   22.405   21.381   39.948
 (dLV/dLP)t      -1.05220 -1.08341 -1.11264 -1.12500 -1.11264 -1.08495 -1.05714 -1.00000
 (dLV/dLT)p        1.8668   2.2999   2.6547   2.7367   2.4840   2.0634   1.6806   1.0000
 Cp, KJ/(KG)(K)    3.9547   5.7793   7.5527   8.3930   7.6828   5.9376   4.1866   0.5203
 GAMMAs            1.1805   1.1729   1.1739   1.1817   1.1967   1.2212   1.2582   1.6667
 SON VEL,M/SEC     1890.1   2034.9   2218.4   2430.2   2649.0   2856.2   3049.0    589.0

 MOLE FRACTIONS

 *e-              0.10589  0.17464  0.25527  0.33370  0.39659  0.43915  0.46478  0.00000
 *Ar              0.78822  0.65073  0.48945  0.33259  0.20682  0.12170  0.07043  1.00000
 *Ar+             0.10589  0.17464  0.25527  0.33370  0.39659  0.43915  0.46478  0.00000

  * THERMODYNAMIC PROPERTIES FITTED TO 20000.K

 NOTE. WEIGHT FRACTION OF FUEL IN TOTAL FUELS AND OF OXIDANT IN TOTAL OXIDANTS









               THERMODYNAMIC EQUILIBRIUM PROPERTIES AT ASSIGNED

                           TEMPERATURE AND PRESSURE

 CASE = _______________

             REACTANT                    WT FRACTION      ENERGY      TEMP
                                          (SEE NOTE)     KJ/KG-MOL      K  
 FUEL        Ar                           1.0000000         0.000      0.000
 OXIDANT     Ar                           1.0000000         0.000      0.000

 O/F=    1.00000  %FUEL= 50.000000  R,EQ.RATIO= 0.000000  PHI,EQ.RATIO= 0.000000

 THERMODYNAMIC PROPERTIES

 P, BAR            5.0000   5.0000   5.0000   5.0000   5.0000   5.0000   5.0000   5.0000
 T, K             2000.00  3000.00  4000.00  5000.00  6000.00  7000.00  8000.00  9000.00
 RHO, KG/CU M    1.2012 0 8.0077-1 6.0058-1 4.8046-1 4.0038-1 3.4315-1 3.0008-1 2.6614-1
 H, KJ/KG          885.53  1405.86  1926.20  2446.55  2967.31  3492.69  4037.56  4653.55
 U, KJ/KG          469.26   781.46  1093.66  1405.88  1718.50  2035.59  2371.32  2774.86
 G, KJ/KG        -8177.63 -12821.8 -17642.8 -22595.3 -27652.5 -32797.2 -38018.3 -43311.1
 S, KJ/(KG)(K)     4.5316   4.7426   4.8922   5.0084   5.1033   5.1843   5.2570   5.3294

 M, (1/n)          39.948   39.948   39.948   39.948   39.948   39.943   39.920   39.831
 (dLV/dLP)t      -1.00000 -1.00000 -1.00000 -1.00000 -1.00001 -1.00006 -1.00035 -1.00146
 (dLV/dLT)p        1.0000   1.0000   1.0000   1.0000   1.0002   1.0017   1.0090   1.0334
 Cp, KJ/(KG)(K)    0.5203   0.5203   0.5203   0.5204   0.5216   0.5304   0.5677   0.6823
 GAMMAs            1.6667   1.6667   1.6667   1.6665   1.6644   1.6495   1.5953   1.4820
 SON VEL,M/SEC      832.9   1020.1   1177.9   1316.9   1441.7   1550.3   1630.4   1668.6

 MOLE FRACTIONS

 *e-              0.00000  0.00000  0.00000  0.00000  0.00001  0.00012  0.00071  0.00292
 *Ar              1.00000  1.00000  1.00000  1.00000  0.99998  0.99977  0.99859  0.99416
 *Ar+             0.00000  0.00000  0.00000  0.00000  0.00001  0.00012  0.00071  0.00292

  * THERMODYNAMIC PROPERTIES FITTED TO 20000.K

 NOTE. WEIGHT FRACTION OF FUEL IN TOTAL FUELS AND OF OXIDANT IN TOTAL OXIDANTS









               THERMODYNAMIC EQUILIBRIUM PROPERTIES AT ASSIGNED

                           TEMPERATURE AND PRESSURE

 CASE = _______________

             REACTANT                    WT FRACTION      ENERGY      TEMP
                                          (SEE NOTE)     KJ/KG-MOL      K  
 FUEL        Ar                           1.0000000         0.000      0.000
 OXIDANT     Ar                           1.0000000         0.000      0.000

 O/F=    1.00000  %FUEL= 50.000000  R,EQ.RATIO= 0.000000  PHI,EQ.RATIO= 0.000000

 THERMODYNAMIC PROPERTIES

 P, BAR            5.0000   5.0000   5.0000   5.0000   5.0000   5.0000   5.0000   5.0000
 T, K            10000.00 11000.00 12000.00 13000.00 14000.00 15000.00 16000.00 17000.00
 RHO, KG/CU M    2.3803-1 2.1327-1 1.9002-1 1.6707-1 1.4418-1 1.2223-1 1.0286-1 8.7498-2
 H, KJ/KG         5451.70  6627.96  8480.95  11405.9  15830.4  22017.1  29692.2  37794.1
 U, KJ/KG         3351.11  4283.55  5849.61  8413.18  12362.6  17926.5  24831.5  32079.7
 G, KJ/KG        -48680.8 -54146.8 -59747.1 -65542.4 -71616.7 -78068.3 -84984.9 -92401.8
 S, KJ/(KG)(K)     5.4133   5.5250   5.6857   5.9191   6.2462   6.6724   7.1673   7.6586

 M, (1/n)          39.582   39.012   37.918   36.117   33.567   30.489   27.368   24.735
 (dLV/dLP)t      -1.00458 -1.01171 -1.02534 -1.04741 -1.07698 -1.10700 -1.12419 -1.11838
 (dLV/dLT)p        1.0956   1.2246   1.4507   1.7872   2.1997   2.5718   2.7254   2.5597
 Cp, KJ/(KG)(K)    0.9463   1.4560   2.3167   3.6075   5.2920   7.0421   8.1228   7.8331
 GAMMAs            1.3547   1.2623   1.2104   1.1854   1.1758   1.1753   1.1815   1.1944
 SON VEL,M/SEC     1686.9   1720.3   1784.7   1883.5   2019.2   2192.6   2396.5   2612.6

 MOLE FRACTIONS

 *e-              0.00917  0.02344  0.05082  0.09590  0.15974  0.23679  0.31490  0.38082
 *Ar              0.98166  0.95313  0.89835  0.80819  0.68053  0.52642  0.37020  0.23837
 *Ar+             0.00917  0.02344  0.05082  0.09590  0.15974  0.23679  0.31490  0.38082

  * THERMODYNAMIC PROPERTIES FITTED TO 20000.K

 NOTE. WEIGHT FRACTION OF FUEL IN TOTAL FUELS AND OF OXIDANT IN TOTAL OXIDANTS









               THERMODYNAMIC EQUILIBRIUM PROPERTIES AT ASSIGNED

                           TEMPERATURE AND PRESSURE

 CASE = _______________

             REACTANT                    WT FRACTION      ENERGY      TEMP
                                          (SEE NOTE)     KJ/KG-MOL      K  
 FUEL        Ar                           1.0000000         0.000      0.000
 OXIDANT     Ar                           1.0000000         0.000      0.000

 O/F=    1.00000  %FUEL= 50.000000  R,EQ.RATIO= 0.000000  PHI,EQ.RATIO= 0.000000

 THERMODYNAMIC PROPERTIES

 P, BAR            5.0000   5.0000   6.0000   6.0000   6.0000   6.0000   6.0000   6.0000
 T, K            18000.00 19000.00  1000.00  2000.00  3000.00  4000.00  5000.00  6000.00
 RHO, KG/CU M    7.6365-2 6.8608-2 2.8828 0 1.4414 0 9.6092-1 7.2069-1 5.7655-1 4.8046-1
 H, KJ/KG         44956.2  50441.3   365.20   885.53  1405.86  1926.20  2446.55  2967.27
 U, KJ/KG         38408.7  43153.5   157.06   469.26   781.46  1093.66  1405.88  1718.46
 G, KJ/KG       -100274.3-108500.3 -3767.77 -8101.74 -12708.0 -17491.0 -22405.5 -27424.8
 S, KJ/(KG)(K)     8.0684   8.3653   4.1330   4.4936   4.7046   4.8543   4.9704   5.0654

 M, (1/n)          22.858   21.677   39.948   39.948   39.948   39.948   39.948   39.948
 (dLV/dLP)t      -1.09433 -1.06621 -1.00000 -1.00000 -1.00000 -1.00000 -1.00000 -1.00000
 (dLV/dLT)p        2.1807   1.7888   1.0000   1.0000   1.0000   1.0000   1.0000   1.0002
 Cp, KJ/(KG)(K)    6.3654   4.6329   0.5203   0.5203   0.5203   0.5203   0.5204   0.5215
 GAMMAs            1.2157   1.2480   1.6667   1.6667   1.6667   1.6667   1.6666   1.6646
 SON VEL,M/SEC     2821.3   3015.8    589.0    832.9   1020.1   1177.9   1316.9   1441.8

 MOLE FRACTIONS

 *e-              0.42782  0.45737  0.00000  0.00000  0.00000  0.00000  0.00000  0.00001
 *Ar              0.14437  0.08525  1.00000  1.00000  1.00000  1.00000  1.00000  0.99998
 *Ar+             0.42782  0.45737  0.00000  0.00000  0.00000  0.00000  0.00000  0.00001

  * THERMODYNAMIC PROPERTIES FITTED TO 20000.K

 NOTE. WEIGHT FRACTION OF FUEL IN TOTAL FUELS AND OF OXIDANT IN TOTAL OXIDANTS









               THERMODYNAMIC EQUILIBRIUM PROPERTIES AT ASSIGNED

                           TEMPERATURE AND PRESSURE

 CASE = _______________

             REACTANT                    WT FRACTION      ENERGY      TEMP
                                          (SEE NOTE)     KJ/KG-MOL      K  
 FUEL        Ar                           1.0000000         0.000      0.000
 OXIDANT     Ar                           1.0000000         0.000      0.000

 O/F=    1.00000  %FUEL= 50.000000  R,EQ.RATIO= 0.000000  PHI,EQ.RATIO= 0.000000

 THERMODYNAMIC PROPERTIES

 P, BAR            6.0000   6.0000   6.0000   6.0000   6.0000   6.0000   6.0000   6.0000
 T, K             7000.00  8000.00  9000.00 10000.00 11000.00 12000.00 13000.00 14000.00
 RHO, KG/CU M    4.1178-1 3.6011-1 3.1945-1 2.8586-1 2.5645-1 2.2903-1 2.0216-1 1.7538-1
 H, KJ/KG         3492.26  4034.95  4642.61  5416.71  6536.19  8274.22  10994.8  15102.1
 U, KJ/KG         2035.18  2368.81  2764.40  3317.80  4196.57  5654.51  8026.81  11681.1
 G, KJ/KG        -32531.6 -37714.5 -42968.6 -48298.0 -53719.8 -59268.4 -64999.1 -70988.7
 S, KJ/(KG)(K)     5.1463   5.2187   5.2901   5.3715   5.4778   5.6286   5.8457   6.1493

 M, (1/n)          39.944   39.922   39.842   39.613   39.092   38.086   36.418   34.025
 (dLV/dLP)t      -1.00005 -1.00032 -1.00133 -1.00419 -1.01071 -1.02325 -1.04377 -1.07188
 (dLV/dLT)p        1.0015   1.0082   1.0305   1.0873   1.2055   1.4135   1.7267   2.1202
 Cp, KJ/(KG)(K)    0.5295   0.5635   0.6683   0.9094   1.3750   2.1624   3.3486   4.9194
 GAMMAs            1.6509   1.6009   1.4932   1.3674   1.2724   1.2172   1.1898   1.1784
 SON VEL,M/SEC     1551.0   1633.2   1674.7   1694.1   1725.4   1785.7   1879.2   2007.9

 MOLE FRACTIONS

 *e-              0.00011  0.00064  0.00267  0.00838  0.02144  0.04661  0.08836  0.14826
 *Ar              0.99979  0.99871  0.99467  0.98324  0.95712  0.90677  0.82328  0.70349
 *Ar+             0.00011  0.00064  0.00267  0.00838  0.02144  0.04661  0.08836  0.14826

  * THERMODYNAMIC PROPERTIES FITTED TO 20000.K

 NOTE. WEIGHT FRACTION OF FUEL IN TOTAL FUELS AND OF OXIDANT IN TOTAL OXIDANTS









               THERMODYNAMIC EQUILIBRIUM PROPERTIES AT ASSIGNED

                           TEMPERATURE AND PRESSURE

 CASE = _______________

             REACTANT                    WT FRACTION      ENERGY      TEMP
                                          (SEE NOTE)     KJ/KG-MOL      K  
 FUEL        Ar                           1.0000000         0.000      0.000
 OXIDANT     Ar                           1.0000000         0.000      0.000

 O/F=    1.00000  %FUEL= 50.000000  R,EQ.RATIO= 0.000000  PHI,EQ.RATIO= 0.000000

 THERMODYNAMIC PROPERTIES

 P, BAR            6.0000   6.0000   6.0000   6.0000   6.0000   7.0000   7.0000   7.0000
 T, K            15000.00 16000.00 17000.00 18000.00 19000.00  1000.00  2000.00  3000.00
 RHO, KG/CU M    1.4950-1 1.2624-1 1.0732-1 9.3289-2 8.3388-2 3.3632 0 1.6816 0 1.1211 0
 H, KJ/KG         20882.8  28190.4  36162.2  43505.3  49339.3   365.20   885.53  1405.86
 U, KJ/KG         16869.4  23437.7  30571.7  37073.7  42144.0   157.06   469.26   781.46
 G, KJ/KG        -77329.6 -84108.6 -91371.2 -99091.0-107179.9 -3735.69 -8037.57 -12611.7
 S, KJ/(KG)(K)     6.5475   7.0187   7.5020   7.9220   8.2379   4.1009   4.4616   4.6725

 M, (1/n)          31.075   27.991   25.283   23.270   21.956   39.948   39.948   39.948
 (dLV/dLP)t      -1.10200 -1.12235 -1.12180 -1.10151 -1.07396 -1.00000 -1.00000 -1.00000
 (dLV/dLT)p        2.4984   2.6999   2.6047   2.2706   1.8810   1.0000   1.0000   1.0000
 Cp, KJ/(KG)(K)    6.6239   7.8432   7.8673   6.6648   4.9993   0.5203   0.5203   0.5203
 GAMMAs            1.1766   1.1816   1.1930   1.2120   1.2408   1.6667   1.6667   1.6667
 SON VEL,M/SEC     2173.1   2369.8   2582.6   2791.9   2988.0    589.0    832.9   1020.1

 MOLE FRACTIONS

 *e-              0.22211  0.29932  0.36710  0.41750  0.45040  0.00000  0.00000  0.00000
 *Ar              0.55579  0.40137  0.26580  0.16499  0.09921  1.00000  1.00000  1.00000
 *Ar+             0.22211  0.29932  0.36710  0.41750  0.45040  0.00000  0.00000  0.00000

  * THERMODYNAMIC PROPERTIES FITTED TO 20000.K

 NOTE. WEIGHT FRACTION OF FUEL IN TOTAL FUELS AND OF OXIDANT IN TOTAL OXIDANTS









               THERMODYNAMIC EQUILIBRIUM PROPERTIES AT ASSIGNED

                           TEMPERATURE AND PRESSURE

 CASE = _______________

             REACTANT                    WT FRACTION      ENERGY      TEMP
                                          (SEE NOTE)     KJ/KG-MOL      K  
 FUEL        Ar                           1.0000000         0.000      0.000
 OXIDANT     Ar                           1.0000000         0.000      0.000

 O/F=    1.00000  %FUEL= 50.000000  R,EQ.RATIO= 0.000000  PHI,EQ.RATIO= 0.000000

 THERMODYNAMIC PROPERTIES

 P, BAR            7.0000   7.0000   7.0000   7.0000   7.0000   7.0000   7.0000   7.0000
 T, K             4000.00  5000.00  6000.00  7000.00  8000.00  9000.00 10000.00 11000.00
 RHO, KG/CU M    8.4081-1 6.7265-1 5.6053-1 4.8041-1 4.2015-1 3.7277-1 3.3371-1 2.9967-1
 H, KJ/KG         1926.20  2446.54  2967.24  3491.94  4032.92  4634.11  5389.52  6464.86
 U, KJ/KG         1093.66  1405.88  1718.43  2034.86  2366.86  2756.28  3291.91  4128.96
 G, KJ/KG        -17362.7 -22245.1 -27232.3 -32307.0 -37457.7 -42679.1 -47974.6 -53359.5
 S, KJ/(KG)(K)     4.8222   4.9383   5.0333   5.1141   5.1863   5.2570   5.3364   5.4386

 M, (1/n)          39.948   39.948   39.948   39.944   39.924   39.849   39.638   39.154
 (dLV/dLP)t      -1.00000 -1.00000 -1.00000 -1.00005 -1.00030 -1.00123 -1.00388 -1.00994
 (dLV/dLT)p        1.0000   1.0000   1.0002   1.0014   1.0076   1.0282   1.0809   1.1906
 Cp, KJ/(KG)(K)    0.5203   0.5204   0.5214   0.5288   0.5603   0.6574   0.8808   1.3121
 GAMMAs            1.6667   1.6666   1.6648   1.6521   1.6053   1.5023   1.3781   1.2812
 SON VEL,M/SEC     1177.9   1316.9   1441.9   1551.5   1635.4   1679.6   1700.2   1729.9

 MOLE FRACTIONS

 *e-              0.00000  0.00000  0.00001  0.00010  0.00060  0.00247  0.00776  0.01988
 *Ar              1.00000  1.00000  0.99998  0.99980  0.99881  0.99506  0.98448  0.96024
 *Ar+             0.00000  0.00000  0.00001  0.00010  0.00060  0.00247  0.00776  0.01988

  * THERMODYNAMIC PROPERTIES FITTED TO 20000.K

 NOTE. WEIGHT FRACTION OF FUEL IN TOTAL FUELS AND OF OXIDANT IN TOTAL OXIDANTS









               THERMODYNAMIC EQUILIBRIUM PROPERTIES AT ASSIGNED

                           TEMPERATURE AND PRESSURE

 CASE = _______________

             REACTANT                    WT FRACTION      ENERGY      TEMP
                                          (SEE NOTE)     KJ/KG-MOL      K  
 FUEL        Ar                           1.0000000         0.000      0.000
 OXIDANT     Ar                           1.0000000         0.000      0.000

 O/F=    1.00000  %FUEL= 50.000000  R,EQ.RATIO= 0.000000  PHI,EQ.RATIO= 0.000000

 THERMODYNAMIC PROPERTIES

 P, BAR            7.0000   7.0000   7.0000   7.0000   7.0000   7.0000   7.0000   7.0000
 T, K            12000.00 13000.00 14000.00 15000.00 16000.00 17000.00 18000.00 19000.00
 RHO, KG/CU M    2.6813-1 2.3739-1 2.0683-1 1.7712-1 1.5006-1 1.2760-1 1.1060-1 9.8453-2
 H, KJ/KG         8113.46  10674.5  14531.7  19982.7  26967.5  34780.7  42220.9  48324.2
 U, KJ/KG         5502.79  7725.80  11147.2  16030.6  22302.8  29295.0  35891.8  41214.2
 G, KJ/KG        -58865.3 -64543.1 -70464.2 -76715.7 -83382.8 -90517.5 -98107.4-106077.2
 S, KJ/(KG)(K)     5.5816   5.7860   6.0711   6.4466   6.8969   7.3705   7.7960   8.1264

 M, (1/n)          38.218   36.656   34.393   31.557   28.519   25.766   23.647   22.219
 (dLV/dLP)t      -1.02161 -1.04087 -1.06771 -1.09760 -1.12007 -1.12373 -1.10707 -1.08062
 (dLV/dLT)p        1.3844   1.6785   2.0552   2.4337   2.6683   2.6301   2.3403   1.9603
 Cp, KJ/(KG)(K)    2.0422   3.1458   4.6228   6.2752   7.5753   7.8358   6.8739   5.3015
 GAMMAs            1.2233   1.1937   1.1809   1.1780   1.1819   1.1921   1.2093   1.2355
 SON VEL,M/SEC     1787.1   1876.1   1999.2   2157.7   2348.1   2557.2   2766.5   2963.9

 MOLE FRACTIONS

 *e-              0.04331  0.08240  0.13905  0.21005  0.28610  0.35500  0.40806  0.44381
 *Ar              0.91338  0.83521  0.72191  0.57991  0.42781  0.29000  0.18388  0.11238
 *Ar+             0.04331  0.08240  0.13905  0.21005  0.28610  0.35500  0.40806  0.44381

  * THERMODYNAMIC PROPERTIES FITTED TO 20000.K

 NOTE. WEIGHT FRACTION OF FUEL IN TOTAL FUELS AND OF OXIDANT IN TOTAL OXIDANTS









               THERMODYNAMIC EQUILIBRIUM PROPERTIES AT ASSIGNED

                           TEMPERATURE AND PRESSURE

 CASE = _______________

             REACTANT                    WT FRACTION      ENERGY      TEMP
                                          (SEE NOTE)     KJ/KG-MOL      K  
 FUEL        Ar                           1.0000000         0.000      0.000
 OXIDANT     Ar                           1.0000000         0.000      0.000

 O/F=    1.00000  %FUEL= 50.000000  R,EQ.RATIO= 0.000000  PHI,EQ.RATIO= 0.000000

 THERMODYNAMIC PROPERTIES

 P, BAR            8.0000   8.0000   8.0000   8.0000   8.0000   8.0000   8.0000   8.0000
 T, K             1000.00  2000.00  3000.00  4000.00  5000.00  6000.00  7000.00  8000.00
 RHO, KG/CU M    3.8437 0 1.9218 0 1.2812 0 9.6092-1 7.6874-1 6.4061-1 5.4905-1 4.8019-1
 H, KJ/KG          365.20   885.53  1405.86  1926.20  2446.54  2967.22  3491.67  4031.29
 U, KJ/KG          157.06   469.26   781.46  1093.66  1405.88  1718.40  2034.60  2365.29
 G, KJ/KG        -3707.89 -7981.99 -12528.3 -17251.5 -22106.2 -27065.6 -32112.4 -37235.2
 S, KJ/(KG)(K)     4.0731   4.4338   4.6447   4.7944   4.9105   5.0055   5.0863   5.1583

 M, (1/n)          39.948   39.948   39.948   39.948   39.948   39.948   39.944   39.926
 (dLV/dLP)t      -1.00000 -1.00000 -1.00000 -1.00000 -1.00000 -1.00000 -1.00005 -1.00028
 (dLV/dLT)p        1.0000   1.0000   1.0000   1.0000   1.0000   1.0001   1.0013   1.0071
 Cp, KJ/(KG)(K)    0.5203   0.5203   0.5203   0.5203   0.5204   0.5213   0.5283   0.5577
 GAMMAs            1.6667   1.6667   1.6667   1.6667   1.6666   1.6649   1.6530   1.6090
 SON VEL,M/SEC      589.0    832.9   1020.1   1177.9   1316.9   1441.9   1551.9   1637.2

 MOLE FRACTIONS

 *e-              0.00000  0.00000  0.00000  0.00000  0.00000  0.00001  0.00009  0.00056
 *Ar              1.00000  1.00000  1.00000  1.00000  1.00000  0.99998  0.99982  0.99888
 *Ar+             0.00000  0.00000  0.00000  0.00000  0.00000  0.00001  0.00009  0.00056

  * THERMODYNAMIC PROPERTIES FITTED TO 20000.K

 NOTE. WEIGHT FRACTION OF FUEL IN TOTAL FUELS AND OF OXIDANT IN TOTAL OXIDANTS









               THERMODYNAMIC EQUILIBRIUM PROPERTIES AT ASSIGNED

                           TEMPERATURE AND PRESSURE

 CASE = _______________

             REACTANT                    WT FRACTION      ENERGY      TEMP
                                          (SEE NOTE)     KJ/KG-MOL      K  
 FUEL        Ar                           1.0000000         0.000      0.000
 OXIDANT     Ar                           1.0000000         0.000      0.000

 O/F=    1.00000  %FUEL= 50.000000  R,EQ.RATIO= 0.000000  PHI,EQ.RATIO= 0.000000

 THERMODYNAMIC PROPERTIES

 P, BAR            8.0000   8.0000   8.0000   8.0000   8.0000   8.0000   8.0000   8.0000
 T, K             9000.00 10000.00 11000.00 12000.00 13000.00 14000.00 15000.00 16000.00
 RHO, KG/CU M    4.2609-1 3.8158-1 3.4292-1 3.0729-1 2.7275-1 2.3847-1 2.0502-1 1.7425-1
 H, KJ/KG         4627.26  5367.60  6407.36  7983.81  10415.9  14069.3  19245.8  25946.7
 U, KJ/KG         2749.72  3271.04  4074.45  5380.43  7482.73  10714.5  15343.9  21355.5
 G, KJ/KG        -42428.4 -47694.5 -53047.7 -58517.2 -64150.4 -70014.3 -76191.3 -82764.8
 S, KJ/(KG)(K)     5.2284   5.3062   5.4050   5.5417   5.7359   6.0060   6.3625   6.7945

 M, (1/n)          39.856   39.658   39.204   38.325   36.851   34.698   31.963   28.975
 (dLV/dLP)t      -1.00115 -1.00363 -1.00931 -1.02028 -1.03849 -1.06421 -1.09371 -1.11764
 (dLV/dLT)p        1.0264   1.0757   1.1785   1.3607   1.6390   2.0007   2.3766   2.6345
 Cp, KJ/(KG)(K)    0.6486   0.8577   1.2614   1.9452   2.9815   4.3796   5.9795   7.3257
 GAMMAs            1.5099   1.3874   1.2890   1.2288   1.1973   1.1831   1.1793   1.1823
 SON VEL,M/SEC     1683.7   1705.5   1734.1   1788.6   1874.0   1992.3   2145.1   2329.9

 MOLE FRACTIONS

 *e-              0.00231  0.00726  0.01862  0.04063  0.07752  0.13143  0.19989  0.27467
 *Ar              0.99538  0.98547  0.96276  0.91873  0.84495  0.73714  0.60022  0.45066
 *Ar+             0.00231  0.00726  0.01862  0.04063  0.07752  0.13143  0.19989  0.27467

  * THERMODYNAMIC PROPERTIES FITTED TO 20000.K

 NOTE. WEIGHT FRACTION OF FUEL IN TOTAL FUELS AND OF OXIDANT IN TOTAL OXIDANTS









               THERMODYNAMIC EQUILIBRIUM PROPERTIES AT ASSIGNED

                           TEMPERATURE AND PRESSURE

 CASE = _______________

             REACTANT                    WT FRACTION      ENERGY      TEMP
                                          (SEE NOTE)     KJ/KG-MOL      K  
 FUEL        Ar                           1.0000000         0.000      0.000
 OXIDANT     Ar                           1.0000000         0.000      0.000

 O/F=    1.00000  %FUEL= 50.000000  R,EQ.RATIO= 0.000000  PHI,EQ.RATIO= 0.000000

 THERMODYNAMIC PROPERTIES

 P, BAR            8.0000   8.0000   8.0000   9.0000   9.0000   9.0000   9.0000   9.0000
 T, K            17000.00 18000.00 19000.00  1000.00  2000.00  3000.00  4000.00  5000.00
 RHO, KG/CU M    1.4827-1 1.2826-1 1.1378-1 4.3242 0 2.1621 0 1.4414 0 1.0810 0 8.6483-1
 H, KJ/KG         33591.3  41073.2  47385.2   365.20   885.53  1405.86  1926.20  2446.54
 U, KJ/KG         28195.9  34835.9  40354.0   157.06   469.26   781.46  1093.66  1405.88
 G, KJ/KG        -89791.0 -97268.4-105133.0 -3683.38 -7932.96 -12454.8 -17153.4 -21983.6
 S, KJ/(KG)(K)     7.2578   7.6856   8.0273   4.0486   4.4092   4.6202   4.7699   4.8860

 M, (1/n)          26.198   23.994   22.468   39.948   39.948   39.948   39.948   39.948
 (dLV/dLP)t      -1.12469 -1.11141 -1.08636 -1.00000 -1.00000 -1.00000 -1.00000 -1.00000
 (dLV/dLT)p        2.6428   2.3945   2.0287   1.0000   1.0000   1.0000   1.0000   1.0000
 Cp, KJ/(KG)(K)    7.7666   7.0178   5.5519   0.5203   0.5203   0.5203   0.5203   0.5204
 GAMMAs            1.1915   1.2073   1.2315   1.6667   1.6667   1.6667   1.6667   1.6666
 SON VEL,M/SEC     2535.5   2744.1   2942.6    589.0    832.9   1020.1   1177.9   1316.9

 MOLE FRACTIONS

 *e-              0.34421  0.39936  0.43757  0.00000  0.00000  0.00000  0.00000  0.00000
 *Ar              0.31158  0.20128  0.12485  1.00000  1.00000  1.00000  1.00000  1.00000
 *Ar+             0.34421  0.39936  0.43757  0.00000  0.00000  0.00000  0.00000  0.00000

  * THERMODYNAMIC PROPERTIES FITTED TO 20000.K

 NOTE. WEIGHT FRACTION OF FUEL IN TOTAL FUELS AND OF OXIDANT IN TOTAL OXIDANTS









               THERMODYNAMIC EQUILIBRIUM PROPERTIES AT ASSIGNED

                           TEMPERATURE AND PRESSURE

 CASE = _______________

             REACTANT                    WT FRACTION      ENERGY      TEMP
                                          (SEE NOTE)     KJ/KG-MOL      K  
 FUEL        Ar                           1.0000000         0.000      0.000
 OXIDANT     Ar                           1.0000000         0.000      0.000

 O/F=    1.00000  %FUEL= 50.000000  R,EQ.RATIO= 0.000000  PHI,EQ.RATIO= 0.000000

 THERMODYNAMIC PROPERTIES

 P, BAR            9.0000   9.0000   9.0000   9.0000   9.0000   9.0000   9.0000   9.0000
 T, K             6000.00  7000.00  8000.00  9000.00 10000.00 11000.00 12000.00 13000.00
 RHO, KG/CU M    7.2069-1 6.1768-1 5.4023-1 4.7942-1 4.2945-1 3.8620-1 3.4651-1 3.0820-1
 H, KJ/KG         2967.20  3491.45  4029.94  4621.59  5349.45  6359.73  7876.39  10201.3
 U, KJ/KG         1718.39  2034.39  2363.99  2744.30  3253.75  4029.30  5279.05  7281.13
 G, KJ/KG        -26918.5 -31940.8 -37039.0 -42207.2 -47447.6 -52773.1 -58210.9 -63805.7
 S, KJ/(KG)(K)     4.9809   5.0617   5.1336   5.2032   5.2797   5.3757   5.5073   5.6928

 M, (1/n)          39.948   39.945   39.927   39.861   39.674   39.246   38.414   37.014
 (dLV/dLP)t      -1.00000 -1.00004 -1.00026 -1.00109 -1.00343 -1.00879 -1.01917 -1.03649
 (dLV/dLT)p        1.0001   1.0012   1.0067   1.0249   1.0714   1.1685   1.3410   1.6059
 Cp, KJ/(KG)(K)    0.5213   0.5278   0.5555   0.6413   0.8385   1.2193   1.8647   2.8449
 GAMMAs            1.6650   1.6537   1.6120   1.5165   1.3956   1.2961   1.2339   1.2007
 SON VEL,M/SEC     1442.0   1552.3   1638.8   1687.3   1710.2   1737.9   1790.2   1872.5

 MOLE FRACTIONS

 *e-              0.00001  0.00009  0.00053  0.00218  0.00685  0.01758  0.03840  0.07344
 *Ar              0.99998  0.99983  0.99895  0.99564  0.98630  0.96485  0.92320  0.85312
 *Ar+             0.00001  0.00009  0.00053  0.00218  0.00685  0.01758  0.03840  0.07344

  * THERMODYNAMIC PROPERTIES FITTED TO 20000.K

 NOTE. WEIGHT FRACTION OF FUEL IN TOTAL FUELS AND OF OXIDANT IN TOTAL OXIDANTS









               THERMODYNAMIC EQUILIBRIUM PROPERTIES AT ASSIGNED

                           TEMPERATURE AND PRESSURE

 CASE = _______________

             REACTANT                    WT FRACTION      ENERGY      TEMP
                                          (SEE NOTE)     KJ/KG-MOL      K  
 FUEL        Ar                           1.0000000         0.000      0.000
 OXIDANT     Ar                           1.0000000         0.000      0.000

 O/F=    1.00000  %FUEL= 50.000000  R,EQ.RATIO= 0.000000  PHI,EQ.RATIO= 0.000000

 THERMODYNAMIC PROPERTIES

 P, BAR            9.0000   9.0000   9.0000   9.0000   9.0000   9.0000   10.000   10.000
 T, K            14000.00 15000.00 16000.00 17000.00 18000.00 19000.00  1000.00  2000.00
 RHO, KG/CU M    2.7026-1 2.3317-1 1.9873-1 1.6928-1 1.4623-1 1.2935-1 4.8046 0 2.4023 0
 H, KJ/KG         13684.5  18628.2  25077.9  32553.4  40039.7  46513.2   365.20   885.53
 U, KJ/KG         10354.4  14768.3  20549.2  27236.8  33884.9  39555.2   157.06   469.26
 G, KJ/KG        -69620.6 -75734.3 -82227.8 -89160.2 -96538.6-104309.2 -3661.45 -7889.10
 S, KJ/(KG)(K)     5.9504   6.2908   6.7066   7.1596   7.5877   7.9380   4.0266   4.3873

 M, (1/n)          34.955   32.311   29.376   26.586   24.316   22.704   39.948   39.948
 (dLV/dLP)t      -1.06122 -1.09025 -1.11519 -1.12500 -1.11480 -1.09133 -1.00000 -1.00000
 (dLV/dLT)p        1.9541   2.3257   2.6004   2.6468   2.4370   2.0879   1.0000   1.0000
 Cp, KJ/(KG)(K)    4.1753   5.7249   7.0958   7.6760   7.1140   5.7599   0.5203   0.5203
 GAMMAs            1.1853   1.1805   1.1828   1.1911   1.2058   1.2283   1.6667   1.6667
 SON VEL,M/SEC     1986.7   2134.6   2314.4   2516.5   2724.2   2923.4    589.0    832.9

 MOLE FRACTIONS

 *e-              0.12499  0.19118  0.26466  0.33449  0.39130  0.43166  0.00000  0.00000
 *Ar              0.75002  0.61765  0.47069  0.33102  0.21740  0.13669  1.00000  1.00000
 *Ar+             0.12499  0.19118  0.26466  0.33449  0.39130  0.43166  0.00000  0.00000

  * THERMODYNAMIC PROPERTIES FITTED TO 20000.K

 NOTE. WEIGHT FRACTION OF FUEL IN TOTAL FUELS AND OF OXIDANT IN TOTAL OXIDANTS









               THERMODYNAMIC EQUILIBRIUM PROPERTIES AT ASSIGNED

                           TEMPERATURE AND PRESSURE

 CASE = _______________

             REACTANT                    WT FRACTION      ENERGY      TEMP
                                          (SEE NOTE)     KJ/KG-MOL      K  
 FUEL        Ar                           1.0000000         0.000      0.000
 OXIDANT     Ar                           1.0000000         0.000      0.000

 O/F=    1.00000  %FUEL= 50.000000  R,EQ.RATIO= 0.000000  PHI,EQ.RATIO= 0.000000

 THERMODYNAMIC PROPERTIES

 P, BAR            10.000   10.000   10.000   10.000   10.000   10.000   10.000   10.000
 T, K             3000.00  4000.00  5000.00  6000.00  7000.00  8000.00  9000.00 10000.00
 RHO, KG/CU M    1.6015 0 1.2012 0 9.6092-1 8.0076-1 6.8632-1 6.0028-1 5.3274-1 4.7734-1
 H, KJ/KG         1405.86  1926.20  2446.54  2967.18  3491.26  4028.79  4616.78  5334.09
 U, KJ/KG          781.46  1093.66  1405.87  1718.37  2034.21  2362.89  2739.71  3239.13
 G, KJ/KG        -12389.0 -17065.7 -21873.9 -26786.9 -31787.3 -36863.5 -42009.5 -47226.9
 S, KJ/(KG)(K)     4.5983   4.7480   4.8641   4.9590   5.0398   5.1115   5.1807   5.2561

 M, (1/n)          39.948   39.948   39.948   39.948   39.945   39.928   39.865   39.688
 (dLV/dLP)t      -1.00000 -1.00000 -1.00000 -1.00000 -1.00004 -1.00025 -1.00103 -1.00325
 (dLV/dLT)p        1.0000   1.0000   1.0000   1.0001   1.0012   1.0064   1.0236   1.0678
 Cp, KJ/(KG)(K)    0.5203   0.5203   0.5204   0.5212   0.5274   0.5537   0.6351   0.8223
 GAMMAs            1.6667   1.6667   1.6666   1.6651   1.6544   1.6146   1.5222   1.4029
 SON VEL,M/SEC     1020.1   1177.9   1316.9   1442.0   1552.6   1640.1   1690.4   1714.4

 MOLE FRACTIONS

 *e-              0.00000  0.00000  0.00000  0.00001  0.00008  0.00050  0.00207  0.00650
 *Ar              1.00000  1.00000  1.00000  0.99998  0.99984  0.99900  0.99587  0.98700
 *Ar+             0.00000  0.00000  0.00000  0.00001  0.00008  0.00050  0.00207  0.00650

  * THERMODYNAMIC PROPERTIES FITTED TO 20000.K

 NOTE. WEIGHT FRACTION OF FUEL IN TOTAL FUELS AND OF OXIDANT IN TOTAL OXIDANTS









               THERMODYNAMIC EQUILIBRIUM PROPERTIES AT ASSIGNED

                           TEMPERATURE AND PRESSURE

 CASE = _______________

             REACTANT                    WT FRACTION      ENERGY      TEMP
                                          (SEE NOTE)     KJ/KG-MOL      K  
 FUEL        Ar                           1.0000000         0.000      0.000
 OXIDANT     Ar                           1.0000000         0.000      0.000

 O/F=    1.00000  %FUEL= 50.000000  R,EQ.RATIO= 0.000000  PHI,EQ.RATIO= 0.000000

 THERMODYNAMIC PROPERTIES

 P, BAR            10.000   10.000   10.000   10.000   10.000   10.000   10.000   10.000
 T, K            11000.00 12000.00 13000.00 14000.00 15000.00 16000.00 17000.00 18000.00
 RHO, KG/CU M    4.2949-1 3.8577-1 3.4373-1 3.0219-1 2.6151-1 2.2348-1 1.9058-1 1.6448-1
 H, KJ/KG         6319.43  7785.49  10019.7  13357.9  18100.8  24326.6  31637.3  39102.6
 U, KJ/KG         3991.10  5193.26  7110.39  10048.8  14276.7  19852.0  26390.2  33022.7
 G, KJ/KG        -52527.7 -57937.5 -63498.6 -69270.9 -75329.5 -81753.5 -88603.7 -95894.1
 S, KJ/(KG)(K)     5.3497   5.4769   5.6552   5.9021   6.2287   6.6300   7.0730   7.4998

 M, (1/n)          39.281   38.490   37.153   35.176   32.614   29.731   26.938   24.616
 (dLV/dLP)t      -1.00834 -1.01823 -1.03478 -1.05863 -1.08715 -1.11278 -1.12485 -1.11745
 (dLV/dLT)p        1.1600   1.3242   1.5775   1.9136   2.2802   2.5670   2.6449   2.4702
 Cp, KJ/(KG)(K)    1.1837   1.7966   2.7290   4.0008   5.5029   6.8846   7.5734   7.1748
 GAMMAs            1.3025   1.2385   1.2038   1.1873   1.1817   1.1833   1.1908   1.2045
 SON VEL,M/SEC     1741.5   1791.8   1871.4   1982.1   2125.7   2301.0   2499.7   2706.2

 MOLE FRACTIONS

 *e-              0.01669  0.03651  0.06996  0.11945  0.18358  0.25577  0.32567  0.38381
 *Ar              0.96662  0.92699  0.86008  0.76110  0.63284  0.48846  0.34866  0.23239
 *Ar+             0.01669  0.03651  0.06996  0.11945  0.18358  0.25577  0.32567  0.38381

  * THERMODYNAMIC PROPERTIES FITTED TO 20000.K

 NOTE. WEIGHT FRACTION OF FUEL IN TOTAL FUELS AND OF OXIDANT IN TOTAL OXIDANTS









               THERMODYNAMIC EQUILIBRIUM PROPERTIES AT ASSIGNED

                           TEMPERATURE AND PRESSURE

 CASE = _______________

             REACTANT                    WT FRACTION      ENERGY      TEMP
                                          (SEE NOTE)     KJ/KG-MOL      K  
 FUEL        Ar                           1.0000000         0.000      0.000
 OXIDANT     Ar                           1.0000000         0.000      0.000

 O/F=    1.00000  %FUEL= 50.000000  R,EQ.RATIO= 0.000000  PHI,EQ.RATIO= 0.000000

 THERMODYNAMIC PROPERTIES

 P, BAR            10.000   11.000   11.000   11.000   11.000   11.000   11.000   11.000
 T, K            19000.00  1000.00  2000.00  3000.00  4000.00  5000.00  6000.00  7000.00
 RHO, KG/CU M    1.4514-1 5.2851 0 2.6425 0 1.7617 0 1.3213 0 1.0570 0 8.8084-1 7.5495-1
 H, KJ/KG         45700.7   365.20   885.53  1405.86  1926.20  2446.54  2967.16  3491.10
 U, KJ/KG         38810.9   157.06   469.26   781.46  1093.66  1405.87  1718.35  2034.06
 G, KJ/KG       -103579.6 -3641.61 -7849.42 -12329.5 -16986.4 -21774.7 -26667.9 -31648.4
 S, KJ/(KG)(K)     7.8569   4.0068   4.3675   4.5785   4.7281   4.8443   4.9392   5.0199

 M, (1/n)          22.929   39.948   39.948   39.948   39.948   39.948   39.948   39.945
 (dLV/dLP)t      -1.09566 -1.00000 -1.00000 -1.00000 -1.00000 -1.00000 -1.00000 -1.00004
 (dLV/dLT)p        2.1395   1.0000   1.0000   1.0000   1.0000   1.0000   1.0001   1.0011
 Cp, KJ/(KG)(K)    5.9329   0.5203   0.5203   0.5203   0.5203   0.5204   0.5212   0.5271
 GAMMAs            1.2257   1.6667   1.6667   1.6667   1.6667   1.6666   1.6652   1.6550
 SON VEL,M/SEC     2905.9    589.0    832.9   1020.1   1177.9   1317.0   1442.0   1552.9

 MOLE FRACTIONS

 *e-              0.42603  0.00000  0.00000  0.00000  0.00000  0.00000  0.00001  0.00008
 *Ar              0.14794  1.00000  1.00000  1.00000  1.00000  1.00000  0.99999  0.99984
 *Ar+             0.42603  0.00000  0.00000  0.00000  0.00000  0.00000  0.00001  0.00008

  * THERMODYNAMIC PROPERTIES FITTED TO 20000.K

 NOTE. WEIGHT FRACTION OF FUEL IN TOTAL FUELS AND OF OXIDANT IN TOTAL OXIDANTS









               THERMODYNAMIC EQUILIBRIUM PROPERTIES AT ASSIGNED

                           TEMPERATURE AND PRESSURE

 CASE = _______________

             REACTANT                    WT FRACTION      ENERGY      TEMP
                                          (SEE NOTE)     KJ/KG-MOL      K  
 FUEL        Ar                           1.0000000         0.000      0.000
 OXIDANT     Ar                           1.0000000         0.000      0.000

 O/F=    1.00000  %FUEL= 50.000000  R,EQ.RATIO= 0.000000  PHI,EQ.RATIO= 0.000000

 THERMODYNAMIC PROPERTIES

 P, BAR            11.000   11.000   11.000   11.000   11.000   11.000   11.000   11.000
 T, K             8000.00  9000.00 10000.00 11000.00 12000.00 13000.00 14000.00 15000.00
 RHO, KG/CU M    6.6032-1 5.8607-1 5.2523-1 4.7281-1 4.2507-1 3.7933-1 3.3424-1 2.9002-1
 H, KJ/KG         4027.81  4612.65  5320.87  6284.76  7707.27  9863.22  13076.2  17643.5
 U, KJ/KG         2361.95  2735.76  3226.55  3958.24  5119.43  6963.38  9785.13  13850.6
 G, KJ/KG        -36704.7 -41830.6 -47027.2 -52305.9 -57690.7 -63221.7 -68956.4 -74966.5
 S, KJ/(KG)(K)     5.0916   5.1604   5.2348   5.3264   5.4498   5.6219   5.8595   6.1740

 M, (1/n)          39.929   39.869   39.700   39.312   38.555   37.274   35.369   32.882
 (dLV/dLP)t      -1.00024 -1.00099 -1.00310 -1.00796 -1.01741 -1.03330 -1.05635 -1.08436
 (dLV/dLT)p        1.0061   1.0225   1.0646   1.1527   1.3097   1.5528   1.8781   2.2392
 Cp, KJ/(KG)(K)    0.5521   0.6298   0.8084   1.1531   1.7380   2.6290   3.8493   5.3071
 GAMMAs            1.6169   1.5272   1.4095   1.3084   1.2429   1.2067   1.1892   1.1828
 SON VEL,M/SEC     1641.2   1693.1   1718.1   1744.7   1793.4   1870.6   1978.3   2118.1

 MOLE FRACTIONS

 *e-              0.00048  0.00197  0.00620  0.01593  0.03487  0.06694  0.11461  0.17688
 *Ar              0.99905  0.99606  0.98760  0.96815  0.93026  0.86613  0.77078  0.64624
 *Ar+             0.00048  0.00197  0.00620  0.01593  0.03487  0.06694  0.11461  0.17688

  * THERMODYNAMIC PROPERTIES FITTED TO 20000.K

 NOTE. WEIGHT FRACTION OF FUEL IN TOTAL FUELS AND OF OXIDANT IN TOTAL OXIDANTS









               THERMODYNAMIC EQUILIBRIUM PROPERTIES AT ASSIGNED

                           TEMPERATURE AND PRESSURE

 CASE = _______________

             REACTANT                    WT FRACTION      ENERGY      TEMP
                                          (SEE NOTE)     KJ/KG-MOL      K  
 FUEL        Ar                           1.0000000         0.000      0.000
 OXIDANT     Ar                           1.0000000         0.000      0.000

 O/F=    1.00000  %FUEL= 50.000000  R,EQ.RATIO= 0.000000  PHI,EQ.RATIO= 0.000000

 THERMODYNAMIC PROPERTIES

 P, BAR            11.000   11.000   11.000   11.000   12.000   12.000   12.000   12.000
 T, K            16000.00 17000.00 18000.00 19000.00  1000.00  2000.00  3000.00  4000.00
 RHO, KG/CU M    2.4846-1 2.1215-1 1.8298-1 1.6115-1 5.7655 0 2.8828 0 1.9218 0 1.4414 0
 H, KJ/KG         23668.7  30820.8  38247.8  44941.1   365.20   885.53  1405.86  1926.20
 U, KJ/KG         19241.4  25635.7  32236.2  38115.1   157.06   469.26   781.46  1093.66
 G, KJ/KG        -81329.3 -88106.6 -95317.8-102926.0 -3623.50 -7813.21 -12275.2 -16913.9
 S, KJ/(KG)(K)     6.5624   6.9957   7.4203   7.7825   3.9887   4.3494   4.5603   4.7100

 M, (1/n)          30.049   27.260   24.895   23.143   39.948   39.948   39.948   39.948
 (dLV/dLP)t      -1.11046 -1.12440 -1.11953 -1.09943 -1.00000 -1.00000 -1.00000 -1.00000
 (dLV/dLT)p        2.5347   2.6390   2.4962   2.1845   1.0000   1.0000   1.0000   1.0000
 Cp, KJ/(KG)(K)    6.6906   7.4650   7.2090   6.0770   0.5203   0.5203   0.5203   0.5203
 GAMMAs            1.1838   1.1907   1.2036   1.2235   1.6667   1.6667   1.6667   1.6667
 SON VEL,M/SEC     2289.3   2484.7   2689.9   2889.9    589.0    832.9   1020.1   1177.9

 MOLE FRACTIONS

 *e-              0.24781  0.31761  0.37681  0.42067  0.00000  0.00000  0.00000  0.00000
 *Ar              0.50438  0.36478  0.24639  0.15866  1.00000  1.00000  1.00000  1.00000
 *Ar+             0.24781  0.31761  0.37681  0.42067  0.00000  0.00000  0.00000  0.00000

  * THERMODYNAMIC PROPERTIES FITTED TO 20000.K

 NOTE. WEIGHT FRACTION OF FUEL IN TOTAL FUELS AND OF OXIDANT IN TOTAL OXIDANTS









               THERMODYNAMIC EQUILIBRIUM PROPERTIES AT ASSIGNED

                           TEMPERATURE AND PRESSURE

 CASE = _______________

             REACTANT                    WT FRACTION      ENERGY      TEMP
                                          (SEE NOTE)     KJ/KG-MOL      K  
 FUEL        Ar                           1.0000000         0.000      0.000
 OXIDANT     Ar                           1.0000000         0.000      0.000

 O/F=    1.00000  %FUEL= 50.000000  R,EQ.RATIO= 0.000000  PHI,EQ.RATIO= 0.000000

 THERMODYNAMIC PROPERTIES

 P, BAR            12.000   12.000   12.000   12.000   12.000   12.000   12.000   12.000
 T, K             5000.00  6000.00  7000.00  8000.00  9000.00 10000.00 11000.00 12000.00
 RHO, KG/CU M    1.1531 0 9.6092-1 8.2359-1 7.2036-1 6.3941-1 5.7313-1 5.1614-1 4.6440-1
 H, KJ/KG         2446.54  2967.15  3490.96  4026.95  4609.05  5309.34  6254.51  7639.02
 U, KJ/KG         1405.87  1718.34  2033.92  2361.12  2732.31  3215.58  3929.57  5055.03
 G, KJ/KG        -21684.2 -26559.2 -31521.6 -36559.7 -41667.3 -46845.0 -52103.5 -57465.7
 S, KJ/(KG)(K)     4.8261   4.9211   5.0018   5.0733   5.1418   5.2154   5.3053   5.4254

 M, (1/n)          39.948   39.948   39.945   39.930   39.873   39.711   39.338   38.612
 (dLV/dLP)t      -1.00000 -1.00000 -1.00004 -1.00023 -1.00094 -1.00297 -1.00763 -1.01670
 (dLV/dLT)p        1.0000   1.0001   1.0011   1.0058   1.0216   1.0619   1.1463   1.2970
 Cp, KJ/(KG)(K)    0.5204   0.5211   0.5268   0.5507   0.6252   0.7963   1.1264   1.6868
 GAMMAs            1.6666   1.6652   1.6554   1.6189   1.5317   1.4155   1.3139   1.2469
 SON VEL,M/SEC     1317.0   1442.1   1553.1   1642.2   1695.5   1721.6   1747.8   1795.0

 MOLE FRACTIONS

 *e-              0.00000  0.00001  0.00008  0.00046  0.00189  0.00594  0.01526  0.03344
 *Ar              1.00000  0.99999  0.99985  0.99909  0.99623  0.98812  0.96948  0.93313
 *Ar+             0.00000  0.00001  0.00008  0.00046  0.00189  0.00594  0.01526  0.03344

  * THERMODYNAMIC PROPERTIES FITTED TO 20000.K

 NOTE. WEIGHT FRACTION OF FUEL IN TOTAL FUELS AND OF OXIDANT IN TOTAL OXIDANTS









               THERMODYNAMIC EQUILIBRIUM PROPERTIES AT ASSIGNED

                           TEMPERATURE AND PRESSURE

 CASE = _______________

             REACTANT                    WT FRACTION      ENERGY      TEMP
                                          (SEE NOTE)     KJ/KG-MOL      K  
 FUEL        Ar                           1.0000000         0.000      0.000
 OXIDANT     Ar                           1.0000000         0.000      0.000

 O/F=    1.00000  %FUEL= 50.000000  R,EQ.RATIO= 0.000000  PHI,EQ.RATIO= 0.000000

 THERMODYNAMIC PROPERTIES

 P, BAR            12.000   12.000   12.000   12.000   12.000   12.000   12.000   13.000
 T, K            13000.00 14000.00 15000.00 16000.00 17000.00 18000.00 19000.00  1000.00
 RHO, KG/CU M    4.1499-1 3.6638-1 3.1868-1 2.7364-1 2.3394-1 2.0172-1 1.7735-1 6.2460 0
 H, KJ/KG         9726.67  12829.9  17242.1  23086.2  30087.2  37463.9  44229.0   365.20
 U, KJ/KG         6835.06  9554.61  13476.6  18700.9  24957.8  31514.9  37462.7   157.06
 G, KJ/KG        -62969.8 -68670.7 -74637.7 -80945.9 -87657.8 -94797.5-102334.6 -3606.84
 S, KJ/(KG)(K)     5.5920   5.8215   6.1253   6.5020   6.9262   7.3479   7.7139   3.9720

 M, (1/n)          37.380   35.540   33.121   30.336   27.556   25.157   23.348   39.948
 (dLV/dLP)t      -1.03199 -1.05432 -1.08182 -1.10823 -1.12374 -1.12114 -1.10274 -1.00000
 (dLV/dLT)p        1.5311   1.8465   2.2020   2.5037   2.6302   2.5163   2.2238   1.0000
 Cp, KJ/(KG)(K)    2.5415   3.7163   5.1330   6.5122   7.3544   7.2231   6.1969   0.5203
 GAMMAs            1.2095   1.1909   1.1839   1.1843   1.1906   1.2028   1.2217   1.6667
 SON VEL,M/SEC     1870.1   1975.0   2111.4   2278.9   2471.3   2674.9   2875.1    589.0

 MOLE FRACTIONS

 *e-              0.06428  0.11034  0.17091  0.24062  0.31020  0.37025  0.41555  0.00000
 *Ar              0.87144  0.77932  0.65818  0.51876  0.37959  0.25951  0.16890  1.00000
 *Ar+             0.06428  0.11034  0.17091  0.24062  0.31020  0.37025  0.41555  0.00000

  * THERMODYNAMIC PROPERTIES FITTED TO 20000.K

 NOTE. WEIGHT FRACTION OF FUEL IN TOTAL FUELS AND OF OXIDANT IN TOTAL OXIDANTS









               THERMODYNAMIC EQUILIBRIUM PROPERTIES AT ASSIGNED

                           TEMPERATURE AND PRESSURE

 CASE = _______________

             REACTANT                    WT FRACTION      ENERGY      TEMP
                                          (SEE NOTE)     KJ/KG-MOL      K  
 FUEL        Ar                           1.0000000         0.000      0.000
 OXIDANT     Ar                           1.0000000         0.000      0.000

 O/F=    1.00000  %FUEL= 50.000000  R,EQ.RATIO= 0.000000  PHI,EQ.RATIO= 0.000000

 THERMODYNAMIC PROPERTIES

 P, BAR            13.000   13.000   13.000   13.000   13.000   13.000   13.000   13.000
 T, K             2000.00  3000.00  4000.00  5000.00  6000.00  7000.00  8000.00  9000.00
 RHO, KG/CU M    3.1230 0 2.0820 0 1.5615 0 1.2492 0 1.0410 0 8.9222-1 7.8041-1 6.9274-1
 H, KJ/KG          885.53  1405.86  1926.20  2446.54  2967.14  3490.84  4026.19  4605.87
 U, KJ/KG          469.26   781.46  1093.66  1405.87  1718.33  2033.80  2360.39  2729.27
 G, KJ/KG        -7779.89 -12225.2 -16847.3 -21600.9 -26459.3 -31405.0 -36426.4 -41517.0
 S, KJ/(KG)(K)     4.3327   4.5437   4.6934   4.8095   4.9044   4.9851   5.0566   5.1248

 M, (1/n)          39.948   39.948   39.948   39.948   39.948   39.945   39.930   39.876
 (dLV/dLP)t      -1.00000 -1.00000 -1.00000 -1.00000 -1.00000 -1.00004 -1.00022 -1.00091
 (dLV/dLT)p        1.0000   1.0000   1.0000   1.0000   1.0001   1.0010   1.0056   1.0207
 Cp, KJ/(KG)(K)    0.5203   0.5203   0.5203   0.5204   0.5211   0.5265   0.5495   0.6211
 GAMMAs            1.6667   1.6667   1.6667   1.6666   1.6653   1.6559   1.6206   1.5358
 SON VEL,M/SEC      832.9   1020.1   1177.9   1317.0   1442.1   1553.3   1643.1   1697.7

 MOLE FRACTIONS

 *e-              0.00000  0.00000  0.00000  0.00000  0.00001  0.00007  0.00044  0.00181
 *Ar              1.00000  1.00000  1.00000  1.00000  0.99999  0.99986  0.99912  0.99637
 *Ar+             0.00000  0.00000  0.00000  0.00000  0.00001  0.00007  0.00044  0.00181

  * THERMODYNAMIC PROPERTIES FITTED TO 20000.K

 NOTE. WEIGHT FRACTION OF FUEL IN TOTAL FUELS AND OF OXIDANT IN TOTAL OXIDANTS









               THERMODYNAMIC EQUILIBRIUM PROPERTIES AT ASSIGNED

                           TEMPERATURE AND PRESSURE

 CASE = _______________

             REACTANT                    WT FRACTION      ENERGY      TEMP
                                          (SEE NOTE)     KJ/KG-MOL      K  
 FUEL        Ar                           1.0000000         0.000      0.000
 OXIDANT     Ar                           1.0000000         0.000      0.000

 O/F=    1.00000  %FUEL= 50.000000  R,EQ.RATIO= 0.000000  PHI,EQ.RATIO= 0.000000

 THERMODYNAMIC PROPERTIES

 P, BAR            13.000   13.000   13.000   13.000   13.000   13.000   13.000   13.000
 T, K            10000.00 11000.00 12000.00 13000.00 14000.00 15000.00 16000.00 17000.00
 RHO, KG/CU M    6.2103-1 5.5949-1 5.0376-1 4.5071-1 3.9862-1 3.4747-1 2.9900-1 2.5595-1
 H, KJ/KG         5299.17  6227.83  7578.81  9606.13  12612.1  16886.1  22565.7  29423.3
 U, KJ/KG         3205.89  3904.28  4998.20  6721.78  9350.84  13144.8  18217.9  24344.3
 G, KJ/KG        -46677.5 -51917.5 -57259.0 -62738.6 -68409.1 -74337.2 -80596.4 -87249.3
 S, KJ/(KG)(K)     5.1977   5.2859   5.4031   5.5650   5.7872   6.0816   6.4476   6.8631

 M, (1/n)          39.720   39.362   38.663   37.474   35.692   33.335   30.597   27.829
 (dLV/dLP)t      -1.00285 -1.00733 -1.01607 -1.03083 -1.05251 -1.07951 -1.10611 -1.12292
 (dLV/dLT)p        1.0595   1.1406   1.2857   1.5119   1.8183   2.1680   2.4742   2.6194
 Cp, KJ/(KG)(K)    0.7855   1.1029   1.6417   2.4643   3.5982   4.9767   6.3476   7.2438
 GAMMAs            1.4210   1.3190   1.2508   1.2121   1.1927   1.1849   1.1848   1.1906
 SON VEL,M/SEC     1724.7   1750.6   1796.6   1869.8   1972.2   2105.5   2269.7   2459.1

 MOLE FRACTIONS

 *e-              0.00571  0.01467  0.03217  0.06193  0.10653  0.16554  0.23408  0.30336
 *Ar              0.98859  0.97066  0.93566  0.87615  0.78694  0.66892  0.53185  0.39328
 *Ar+             0.00571  0.01467  0.03217  0.06193  0.10653  0.16554  0.23408  0.30336

  * THERMODYNAMIC PROPERTIES FITTED TO 20000.K

 NOTE. WEIGHT FRACTION OF FUEL IN TOTAL FUELS AND OF OXIDANT IN TOTAL OXIDANTS









               THERMODYNAMIC EQUILIBRIUM PROPERTIES AT ASSIGNED

                           TEMPERATURE AND PRESSURE

 CASE = _______________

             REACTANT                    WT FRACTION      ENERGY      TEMP
                                          (SEE NOTE)     KJ/KG-MOL      K  
 FUEL        Ar                           1.0000000         0.000      0.000
 OXIDANT     Ar                           1.0000000         0.000      0.000

 O/F=    1.00000  %FUEL= 50.000000  R,EQ.RATIO= 0.000000  PHI,EQ.RATIO= 0.000000

 THERMODYNAMIC PROPERTIES

 P, BAR            13.000   13.000   14.000   14.000   14.000   14.000   14.000   14.000
 T, K            18000.00 19000.00  1000.00  2000.00  3000.00  4000.00  5000.00  6000.00
 RHO, KG/CU M    2.2067-1 1.9374-1 6.7265 0 3.3632 0 2.2422 0 1.6816 0 1.3453 0 1.1211 0
 H, KJ/KG         36741.6  43559.5   365.20   885.53  1405.86  1926.20  2446.54  2967.13
 U, KJ/KG         30850.3  36849.5   157.06   469.26   781.46  1093.66  1405.87  1718.32
 G, KJ/KG        -94323.6-101795.3 -3591.42 -7749.04 -12178.9 -16785.6 -21523.8 -26366.7
 S, KJ/(KG)(K)     7.2814   7.6503   3.9566   4.3173   4.5283   4.6780   4.7941   4.8890

 M, (1/n)          25.404   23.543   39.948   39.948   39.948   39.948   39.948   39.948
 (dLV/dLP)t      -1.12237 -1.10564 -1.00000 -1.00000 -1.00000 -1.00000 -1.00000 -1.00000
 (dLV/dLT)p        2.5318   2.2583   1.0000   1.0000   1.0000   1.0000   1.0000   1.0001
 Cp, KJ/(KG)(K)    7.2219   6.2964   0.5203   0.5203   0.5203   0.5203   0.5204   0.5211
 GAMMAs            1.2021   1.2201   1.6667   1.6667   1.6667   1.6667   1.6666   1.6653
 SON VEL,M/SEC     2661.2   2861.3    589.0    832.9   1020.1   1177.9   1317.0   1442.1

 MOLE FRACTIONS

 *e-              0.36408  0.41065  0.00000  0.00000  0.00000  0.00000  0.00000  0.00001
 *Ar              0.27185  0.17869  1.00000  1.00000  1.00000  1.00000  1.00000  0.99999
 *Ar+             0.36408  0.41065  0.00000  0.00000  0.00000  0.00000  0.00000  0.00001

  * THERMODYNAMIC PROPERTIES FITTED TO 20000.K

 NOTE. WEIGHT FRACTION OF FUEL IN TOTAL FUELS AND OF OXIDANT IN TOTAL OXIDANTS









               THERMODYNAMIC EQUILIBRIUM PROPERTIES AT ASSIGNED

                           TEMPERATURE AND PRESSURE

 CASE = _______________

             REACTANT                    WT FRACTION      ENERGY      TEMP
                                          (SEE NOTE)     KJ/KG-MOL      K  
 FUEL        Ar                           1.0000000         0.000      0.000
 OXIDANT     Ar                           1.0000000         0.000      0.000

 O/F=    1.00000  %FUEL= 50.000000  R,EQ.RATIO= 0.000000  PHI,EQ.RATIO= 0.000000

 THERMODYNAMIC PROPERTIES

 P, BAR            14.000   14.000   14.000   14.000   14.000   14.000   14.000   14.000
 T, K             7000.00  8000.00  9000.00 10000.00 11000.00 12000.00 13000.00 14000.00
 RHO, KG/CU M    9.6086-1 8.4045-1 7.4608-1 6.6895-1 6.0285-1 5.4314-1 4.8647-1 4.3093-1
 H, KJ/KG         3490.73  4025.52  4603.04  5290.11  6204.06  7525.16  9498.70  12417.8
 U, KJ/KG         2033.70  2359.75  2726.56  3197.27  3881.75  4947.56  6620.81  9169.01
 G, KJ/KG        -31297.0 -36302.9 -41378.0 -46522.4 -51745.3 -57067.8 -62525.1 -68167.9
 S, KJ/(KG)(K)     4.9697   5.0411   5.1090   5.1812   5.2681   5.3827   5.5403   5.7561

 M, (1/n)          39.945   39.931   39.878   39.728   39.383   38.708   37.558   35.829
 (dLV/dLP)t      -1.00003 -1.00021 -1.00087 -1.00275 -1.00707 -1.01550 -1.02979 -1.05087
 (dLV/dLT)p        1.0010   1.0054   1.0200   1.0573   1.1356   1.2757   1.4946   1.7927
 Cp, KJ/(KG)(K)    0.5263   0.5484   0.6175   0.7760   1.0819   1.6014   2.3954   3.4925
 GAMMAs            1.6563   1.6222   1.5394   1.4261   1.3238   1.2544   1.2146   1.1943
 SON VEL,M/SEC     1553.5   1643.8   1699.6   1727.6   1753.3   1798.1   1869.6   1969.8

 MOLE FRACTIONS

 *e-              0.00007  0.00042  0.00175  0.00550  0.01414  0.03104  0.05982  0.10310
 *Ar              0.99986  0.99916  0.99651  0.98900  0.97172  0.93793  0.88036  0.79380
 *Ar+             0.00007  0.00042  0.00175  0.00550  0.01414  0.03104  0.05982  0.10310

  * THERMODYNAMIC PROPERTIES FITTED TO 20000.K

 NOTE. WEIGHT FRACTION OF FUEL IN TOTAL FUELS AND OF OXIDANT IN TOTAL OXIDANTS









               THERMODYNAMIC EQUILIBRIUM PROPERTIES AT ASSIGNED

                           TEMPERATURE AND PRESSURE

 CASE = _______________

             REACTANT                    WT FRACTION      ENERGY      TEMP
                                          (SEE NOTE)     KJ/KG-MOL      K  
 FUEL        Ar                           1.0000000         0.000      0.000
 OXIDANT     Ar                           1.0000000         0.000      0.000

 O/F=    1.00000  %FUEL= 50.000000  R,EQ.RATIO= 0.000000  PHI,EQ.RATIO= 0.000000

 THERMODYNAMIC PROPERTIES

 P, BAR            14.000   14.000   14.000   14.000   14.000   15.000   15.000   15.000
 T, K            15000.00 16000.00 17000.00 18000.00 19000.00  1000.00  2000.00  3000.00
 RHO, KG/CU M    3.7638-1 3.2452-1 2.7816-1 2.3981-1 2.1030-1 7.2069 0 3.6035 0 2.4023 0
 H, KJ/KG         16567.5  22097.1  28818.7  36073.2  42928.7   365.20   885.53  1405.86
 U, KJ/KG         12847.9  17782.9  23785.6  30235.3  36271.6   157.06   469.26   781.46
 G, KJ/KG        -74060.8 -80275.4 -86874.6 -93889.0-101300.0 -3577.06 -7720.32 -12135.8
 S, KJ/(KG)(K)     6.0419   6.3983   6.8055   7.2201   7.5910   3.9423   4.3029   4.5139

 M, (1/n)          33.529   30.836   28.083   25.636   23.730   39.948   39.948   39.948
 (dLV/dLP)t      -1.07739 -1.10409 -1.12200 -1.12330 -1.10818 -1.00000 -1.00000 -1.00000
 (dLV/dLT)p        2.1369   2.4462   2.6073   2.5434   2.2887   1.0000   1.0000   1.0000
 Cp, KJ/(KG)(K)    4.8355   6.1954   7.1348   7.2089   6.3788   0.5203   0.5203   0.5203
 GAMMAs            1.1859   1.1853   1.1906   1.2015   1.2188   1.6667   1.6667   1.6667
 SON VEL,M/SEC     2100.3   2261.3   2448.0   2648.5   2848.5    589.0    832.9   1020.1

 MOLE FRACTIONS

 *e-              0.16067  0.22809  0.29701  0.35826  0.40597  0.00000  0.00000  0.00000
 *Ar              0.67865  0.54383  0.40598  0.28348  0.18807  1.00000  1.00000  1.00000
 *Ar+             0.16067  0.22809  0.29701  0.35826  0.40597  0.00000  0.00000  0.00000

  * THERMODYNAMIC PROPERTIES FITTED TO 20000.K

 NOTE. WEIGHT FRACTION OF FUEL IN TOTAL FUELS AND OF OXIDANT IN TOTAL OXIDANTS









               THERMODYNAMIC EQUILIBRIUM PROPERTIES AT ASSIGNED

                           TEMPERATURE AND PRESSURE

 CASE = _______________

             REACTANT                    WT FRACTION      ENERGY      TEMP
                                          (SEE NOTE)     KJ/KG-MOL      K  
 FUEL        Ar                           1.0000000         0.000      0.000
 OXIDANT     Ar                           1.0000000         0.000      0.000

 O/F=    1.00000  %FUEL= 50.000000  R,EQ.RATIO= 0.000000  PHI,EQ.RATIO= 0.000000

 THERMODYNAMIC PROPERTIES

 P, BAR            15.000   15.000   15.000   15.000   15.000   15.000   15.000   15.000
 T, K             4000.00  5000.00  6000.00  7000.00  8000.00  9000.00 10000.00 11000.00
 RHO, KG/CU M    1.8017 0 1.4414 0 1.2011 0 1.0295 0 9.0050-1 7.9942-1 7.1686-1 6.4622-1
 H, KJ/KG         1926.20  2446.54  2967.12  3490.63  4024.91  4600.50  5281.98  6182.70
 U, KJ/KG         1093.66  1405.87  1718.31  2033.60  2359.16  2724.13  3189.52  3861.51
 G, KJ/KG        -16728.2 -21452.0 -26280.6 -31196.5 -36188.0 -41248.5 -46378.0 -51585.1
 S, KJ/(KG)(K)     4.6636   4.7797   4.8746   4.9553   5.0266   5.0943   5.1660   5.2516

 M, (1/n)          39.948   39.948   39.948   39.945   39.932   39.881   39.736   39.402
 (dLV/dLP)t      -1.00000 -1.00000 -1.00000 -1.00003 -1.00020 -1.00084 -1.00266 -1.00683
 (dLV/dLT)p        1.0000   1.0000   1.0001   1.0010   1.0052   1.0193   1.0554   1.1311
 Cp, KJ/(KG)(K)    0.5203   0.5204   0.5210   0.5261   0.5474   0.6142   0.7674   1.0630
[...]

 THERMODYNAMIC PROPERTIES

 P, BAR            18.000   18.000   18.000   18.000   18.000   18.000   18.000   18.000
 T, K             3000.00  4000.00  5000.00  6000.00  7000.00  8000.00  9000.00 10000.00
 RHO, KG/CU M    2.8828 0 2.1621 0 1.7297 0 1.4414 0 1.2354 0 1.0806 0 9.5944-1 8.6063-1
 H, KJ/KG         1405.86  1926.20  2446.54  2967.10  3490.39  4023.40  4594.18  5261.78
 U, KJ/KG          781.46  1093.66  1405.87  1718.29  2033.37  2357.72  2718.09  3170.29
 G, KJ/KG        -12022.0 -16576.4 -21262.2 -26052.9 -30930.9 -35884.3 -40906.4 -45996.6
 S, KJ/(KG)(K)     4.4760   4.6256   4.7418   4.8367   4.9173   4.9885   5.0556   5.1258

 M, (1/n)          39.948   39.948   39.948   39.948   39.946   39.933   39.886   39.754
 (dLV/dLP)t      -1.00000 -1.00000 -1.00000 -1.00000 -1.00003 -1.00019 -1.00077 -1.00243
 (dLV/dLT)p        1.0000   1.0000   1.0000   1.0001   1.0009   1.0047   1.0176   1.0506
 Cp, KJ/(KG)(K)    0.5203   0.5203   0.5204   0.5210   0.5256   0.5450   0.6061   0.7461
 GAMMAs            1.6667   1.6667   1.6666   1.6655   1.6575   1.6272   1.5513   1.4430
 SON VEL,M/SEC     1020.1   1177.9   1317.0   1442.2   1554.0   1646.4   1706.0   1737.2

 MOLE FRACTIONS

 *e-              0.00000  0.00000  0.00000  0.00001  0.00006  0.00037  0.00154  0.00485
 *Ar              1.00000  1.00000  1.00000  0.99999  0.99988  0.99926  0.99692  0.99029
 *Ar+             0.00000  0.00000  0.00000  0.00001  0.00006  0.00037  0.00154  0.00485

  * THERMODYNAMIC PROPERTIES FITTED TO 20000.K

 NOTE. WEIGHT FRACTION OF FUEL IN TOTAL FUELS AND OF OXIDANT IN TOTAL OXIDANTS









               THERMODYNAMIC EQUILIBRIUM PROPERTIES AT ASSIGNED

                           TEMPERATURE AND PRESSURE

 CASE = _______________

             REACTANT                    WT FRACTION      ENERGY      TEMP
                                          (SEE NOTE)     KJ/KG-MOL      K  
 FUEL        Ar                           1.0000000         0.000      0.000
 OXIDANT     Ar                           1.0000000         0.000      0.000

 O/F=    1.00000  %FUEL= 50.000000  R,EQ.RATIO= 0.000000  PHI,EQ.RATIO= 0.000000

 THERMODYNAMIC PROPERTIES

 P, BAR            18.000   18.000   18.000   18.000   18.000   18.000   18.000   18.000
 T, K            11000.00 12000.00 13000.00 14000.00 15000.00 16000.00 17000.00 18000.00
 RHO, KG/CU M    7.7639-1 7.0089-1 6.2989-1 5.6080-1 4.9298-1 4.2791-1 3.6858-1 3.1812-1
 H, KJ/KG         6129.69  7357.30  9162.31  11808.2  15562.6  20601.4  26848.2  33825.4
 U, KJ/KG         3811.26  4789.14  6304.69  8598.52  11911.3  16394.9  21964.6  28167.1
 G, KJ/KG        -51162.2 -56421.3 -61804.5 -67356.4 -73134.7 -79205.0 -85628.7 -92444.5
 S, KJ/(KG)(K)     5.2084   5.3149   5.4590   5.6546   5.9132   6.2379   6.6163   7.0150

 M, (1/n)          39.449   38.850   37.825   36.266   34.158   31.626   28.943   26.450
 (dLV/dLP)t      -1.00625 -1.01373 -1.02649 -1.04561 -1.07039 -1.09695 -1.11783 -1.12495
 (dLV/dLT)p        1.1198   1.2441   1.4399   1.7108   2.0340   2.3471   2.5523   2.5640
 Cp, KJ/(KG)(K)    1.0162   1.4754   2.1791   3.1588   4.3820   5.6860   6.7273   7.0854
 GAMMAs            1.3402   1.2671   1.2235   1.2002   1.1897   1.1873   1.1910   1.2001
 SON VEL,M/SEC     1762.7   1803.9   1869.8   1962.7   2084.2   2234.8   2411.7   2605.8

 MOLE FRACTIONS

 *e-              0.01249  0.02747  0.05315  0.09217  0.14495  0.20833  0.27548  0.33789
 *Ar              0.97501  0.94505  0.89370  0.81566  0.71011  0.58334  0.44904  0.32421
 *Ar+             0.01249  0.02747  0.05315  0.09217  0.14495  0.20833  0.27548  0.33789

  * THERMODYNAMIC PROPERTIES FITTED TO 20000.K

 NOTE. WEIGHT FRACTION OF FUEL IN TOTAL FUELS AND OF OXIDANT IN TOTAL OXIDANTS









               THERMODYNAMIC EQUILIBRIUM PROPERTIES AT ASSIGNED

                           TEMPERATURE AND PRESSURE

 CASE = _______________

             REACTANT                    WT FRACTION      ENERGY      TEMP
                                          (SEE NOTE)     KJ/KG-MOL      K  
 FUEL        Ar                           1.0000000         0.000      0.000
 OXIDANT     Ar                           1.0000000         0.000      0.000

 O/F=    1.00000  %FUEL= 50.000000  R,EQ.RATIO= 0.000000  PHI,EQ.RATIO= 0.000000

 THERMODYNAMIC PROPERTIES

 P, BAR            18.000   19.000   19.000   19.000   19.000   19.000   19.000   19.000
 T, K            19000.00  1000.00  2000.00  3000.00  4000.00  5000.00  6000.00  7000.00
 RHO, KG/CU M    2.7811-1 9.1288 0 4.5644 0 3.0429 0 2.2822 0 1.8258 0 1.5215 0 1.3040 0
 H, KJ/KG         40726.2   365.20   885.53  1405.86  1926.20  2446.54  2967.09  3490.32
 U, KJ/KG         34254.0   157.06   469.26   781.46  1093.66  1405.87  1718.28  2033.30
 G, KJ/KG        -99650.1 -3527.86 -7621.92 -11988.2 -16531.4 -21206.0 -25985.4 -30852.1
 S, KJ/(KG)(K)     7.3882   3.8931   4.2537   4.4647   4.6144   4.7305   4.8254   4.9061

 M, (1/n)          24.408   39.948   39.948   39.948   39.948   39.948   39.948   39.946
 (dLV/dLP)t      -1.11566 -1.00000 -1.00000 -1.00000 -1.00000 -1.00000 -1.00000 -1.00003
 (dLV/dLT)p        2.3778   1.0000   1.0000   1.0000   1.0000   1.0000   1.0001   1.0009
 Cp, KJ/(KG)(K)    6.5826   0.5203   0.5203   0.5203   0.5203   0.5204   0.5210   0.5255
 GAMMAs            1.2149   1.6667   1.6667   1.6667   1.6667   1.6666   1.6655   1.6577
 SON VEL,M/SEC     2804.2    589.0    832.9   1020.1   1177.9   1317.0   1442.2   1554.1

 MOLE FRACTIONS

 *e-              0.38900  0.00000  0.00000  0.00000  0.00000  0.00000  0.00001  0.00006
 *Ar              0.22201  1.00000  1.00000  1.00000  1.00000  1.00000  0.99999  0.99988
 *Ar+             0.38900  0.00000  0.00000  0.00000  0.00000  0.00000  0.00001  0.00006

  * THERMODYNAMIC PROPERTIES FITTED TO 20000.K

 NOTE. WEIGHT FRACTION OF FUEL IN TOTAL FUELS AND OF OXIDANT IN TOTAL OXIDANTS









               THERMODYNAMIC EQUILIBRIUM PROPERTIES AT ASSIGNED

                           TEMPERATURE AND PRESSURE

 CASE = _______________

             REACTANT                    WT FRACTION      ENERGY      TEMP
                                          (SEE NOTE)     KJ/KG-MOL      K  
 FUEL        Ar                           1.0000000         0.000      0.000
 OXIDANT     Ar                           1.0000000         0.000      0.000

 O/F=    1.00000  %FUEL= 50.000000  R,EQ.RATIO= 0.000000  PHI,EQ.RATIO= 0.000000

 THERMODYNAMIC PROPERTIES

 P, BAR            19.000   19.000   19.000   19.000   19.000   19.000   19.000   19.000
 T, K             8000.00  9000.00 10000.00 11000.00 12000.00 13000.00 14000.00 15000.00
 RHO, KG/CU M    1.1407 0 1.0128 0 9.0856-1 8.1979-1 7.4037-1 6.6583-1 5.9340-1 5.2234-1
 H, KJ/KG         4022.98  4592.42  5256.13  6114.88  7323.85  9095.25  11686.5  15360.9
 U, KJ/KG         2357.31  2716.41  3164.91  3797.22  4757.57  6241.67  8484.59  11723.4
 G, KJ/KG        -35794.3 -40805.0 -45883.5 -51036.9 -56282.5 -61650.1 -67183.1 -72937.7
 S, KJ/(KG)(K)     4.9772   5.0442   5.1140   5.1956   5.3005   5.4419   5.6335   5.8866

 M, (1/n)          39.934   39.888   39.759   39.462   38.879   37.878   36.355   34.287
 (dLV/dLP)t      -1.00018 -1.00075 -1.00236 -1.00608 -1.01337 -1.02583 -1.04454 -1.06893
 (dLV/dLT)p        1.0046   1.0172   1.0493   1.1166   1.2378   1.4289   1.6941   2.0126
 Cp, KJ/(KG)(K)    0.5444   0.6039   0.7402   1.0031   1.4503   2.1360   3.0918   4.2897
 GAMMAs            1.6282   1.5537   1.4465   1.3437   1.2699   1.2255   1.2016   1.1905
 SON VEL,M/SEC     1646.9   1707.3   1739.3   1764.7   1805.3   1870.0   1961.4   2081.0

 MOLE FRACTIONS

 *e-              0.00036  0.00150  0.00473  0.01216  0.02676  0.05181  0.08995  0.14172
 *Ar              0.99928  0.99700  0.99055  0.97567  0.94648  0.89638  0.82009  0.71656
 *Ar+             0.00036  0.00150  0.00473  0.01216  0.02676  0.05181  0.08995  0.14172

  * THERMODYNAMIC PROPERTIES FITTED TO 20000.K

 NOTE. WEIGHT FRACTION OF FUEL IN TOTAL FUELS AND OF OXIDANT IN TOTAL OXIDANTS









               THERMODYNAMIC EQUILIBRIUM PROPERTIES AT ASSIGNED

                           TEMPERATURE AND PRESSURE

 CASE = _______________

             REACTANT                    WT FRACTION      ENERGY      TEMP
                                          (SEE NOTE)     KJ/KG-MOL      K  
 FUEL        Ar                           1.0000000         0.000      0.000
 OXIDANT     Ar                           1.0000000         0.000      0.000

 O/F=    1.00000  %FUEL= 50.000000  R,EQ.RATIO= 0.000000  PHI,EQ.RATIO= 0.000000

 THERMODYNAMIC PROPERTIES

 P, BAR            19.000   19.000   19.000   19.000   20.000   20.000   20.000   20.000
 T, K            16000.00 17000.00 18000.00 19000.00  1000.00  2000.00  3000.00  4000.00
 RHO, KG/CU M    4.5404-1 3.9153-1 3.3807-1 2.9542-1 9.6092 0 4.8046 0 3.2031 0 2.4023 0
 H, KJ/KG         20298.3  26441.5  33348.4  40242.7   365.20   885.53  1405.86  1926.20
 U, KJ/KG         16113.6  21588.8  27728.2  33811.1   157.06   469.26   781.46  1093.66
 G, KJ/KG        -78978.1 -85365.5 -92139.6 -99301.2 -3517.18 -7600.57 -11956.2 -16488.7
 S, KJ/(KG)(K)     6.2048   6.5769   6.9716   7.3444   3.8824   4.2430   4.4540   4.6037

 M, (1/n)          31.790   29.127   26.629   24.562   39.948   39.948   39.948   39.948
 (dLV/dLP)t      -1.09538 -1.11674 -1.12500 -1.11701 -1.00000 -1.00000 -1.00000 -1.00000
 (dLV/dLT)p        2.3252   2.5381   2.5647   2.3939   1.0000   1.0000   1.0000   1.0000
 Cp, KJ/(KG)(K)    5.5785   6.6338   7.0440   6.6106   0.5203   0.5203   0.5203   0.5203
 GAMMAs            1.1878   1.1911   1.1998   1.2142   1.6667   1.6667   1.6667   1.6667
 SON VEL,M/SEC     2229.5   2404.2   2596.8   2794.5    589.0    832.9   1020.1   1177.9

 MOLE FRACTIONS

 *e-              0.20421  0.27087  0.33341  0.38514  0.00000  0.00000  0.00000  0.00000
 *Ar              0.59159  0.45826  0.33319  0.22972  1.00000  1.00000  1.00000  1.00000
 *Ar+             0.20421  0.27087  0.33341  0.38514  0.00000  0.00000  0.00000  0.00000

  * THERMODYNAMIC PROPERTIES FITTED TO 20000.K

 NOTE. WEIGHT FRACTION OF FUEL IN TOTAL FUELS AND OF OXIDANT IN TOTAL OXIDANTS









               THERMODYNAMIC EQUILIBRIUM PROPERTIES AT ASSIGNED

                           TEMPERATURE AND PRESSURE

 CASE = _______________

             REACTANT                    WT FRACTION      ENERGY      TEMP
                                          (SEE NOTE)     KJ/KG-MOL      K  
 FUEL        Ar                           1.0000000         0.000      0.000
 OXIDANT     Ar                           1.0000000         0.000      0.000

 O/F=    1.00000  %FUEL= 50.000000  R,EQ.RATIO= 0.000000  PHI,EQ.RATIO= 0.000000

 THERMODYNAMIC PROPERTIES

 P, BAR            20.000   20.000   20.000   20.000   20.000   20.000   20.000   20.000
 T, K             5000.00  6000.00  7000.00  8000.00  9000.00 10000.00 11000.00 12000.00
 RHO, KG/CU M    1.9218 0 1.6015 0 1.3727 0 1.2007 0 1.0661 0 9.5650-1 8.6321-1 7.7987-1
 H, KJ/KG         2446.54  2966.93  3490.26  4022.59  4590.79  5250.91  6101.19  7292.94
 U, KJ/KG         1405.87  1718.13  2033.24  2356.94  2714.85  3159.95  3784.25  4728.41
 G, KJ/KG        -21152.6 -25921.3 -30777.3 -35708.8 -40708.8 -45776.2 -50918.0 -56150.9
 S, KJ/(KG)(K)     4.7198   4.8147   4.8954   4.9664   5.0333   5.1027   5.1836   5.2870

 M, (1/n)          39.948   39.948   39.946   39.934   39.890   39.764   39.474   38.905
 (dLV/dLP)t      -1.00000 -1.00000 -1.00003 -1.00018 -1.00073 -1.00230 -1.00593 -1.01304
 (dLV/dLT)p        1.0000   1.0000   1.0008   1.0045   1.0167   1.0480   1.1137   1.2320
 Cp, KJ/(KG)(K)    0.5204   0.5205   0.5253   0.5437   0.6018   0.7347   0.9911   1.4271
 GAMMAs            1.6666   1.6664   1.6579   1.6292   1.5560   1.4499   1.3471   1.2726
 SON VEL,M/SEC     1317.0   1442.5   1554.2   1647.3   1708.5   1741.2   1766.7   1806.6

 MOLE FRACTIONS

 *e-              0.00000  0.00000  0.00006  0.00035  0.00146  0.00461  0.01186  0.02610
 *Ar              1.00000  1.00000  0.99988  0.99929  0.99708  0.99079  0.97628  0.94780
 *Ar+             0.00000  0.00000  0.00006  0.00035  0.00146  0.00461  0.01186  0.02610

  * THERMODYNAMIC PROPERTIES FITTED TO 20000.K

 NOTE. WEIGHT FRACTION OF FUEL IN TOTAL FUELS AND OF OXIDANT IN TOTAL OXIDANTS









               THERMODYNAMIC EQUILIBRIUM PROPERTIES AT ASSIGNED

                           TEMPERATURE AND PRESSURE

 CASE = _______________

             REACTANT                    WT FRACTION      ENERGY      TEMP
                                          (SEE NOTE)     KJ/KG-MOL      K  
 FUEL        Ar                           1.0000000         0.000      0.000
 OXIDANT     Ar                           1.0000000         0.000      0.000

 O/F=    1.00000  %FUEL= 50.000000  R,EQ.RATIO= 0.000000  PHI,EQ.RATIO= 0.000000

 THERMODYNAMIC PROPERTIES

 P, BAR            20.000   20.000   20.000   20.000   20.000   20.000   20.000   25.000
 T, K            13000.00 14000.00 15000.00 16000.00 17000.00 18000.00 19000.00  1000.00
 RHO, KG/CU M    7.0179-1 6.2604-1 5.5175-1 4.8026-1 4.1460-1 3.5815-1 3.1285-1 1.2012 1
 H, KJ/KG         9033.27  11573.9  15174.2  20016.8  26061.5  32898.9  39781.9   365.20
 U, KJ/KG         6183.42  8379.23  11549.4  15852.4  21237.6  27314.6  33389.0   157.06
 G, KJ/KG        -61503.8 -67019.0 -72751.5 -78764.0 -85117.3 -91852.2 -98972.3 -3470.74
 S, KJ/(KG)(K)     5.4259   5.6138   5.8617   6.1738   6.5399   6.9306   7.3029   3.8359

 M, (1/n)          37.928   36.437   34.407   31.945   29.301   26.800   24.711   39.948
 (dLV/dLP)t      -1.02521 -1.04354 -1.06756 -1.09388 -1.11566 -1.12496 -1.11820 -1.00000
 (dLV/dLT)p        1.4186   1.6785   1.9924   2.3044   2.5238   2.5641   2.4080   1.0000
 Cp, KJ/(KG)(K)    2.0960   3.0298   4.2038   5.4776   6.5436   7.0005   6.6318   0.5203
 GAMMAs            1.2274   1.2029   1.1914   1.1883   1.1913   1.1996   1.2136   1.6667
 SON VEL,M/SEC     1870.3   1960.3   2078.1   2224.5   2397.2   2588.3   2785.4    589.0

 MOLE FRACTIONS

 *e-              0.05057  0.08790  0.13871  0.20033  0.26651  0.32912  0.38142  0.00000
 *Ar              0.89886  0.82421  0.72258  0.59933  0.46698  0.34176  0.23716  1.00000
 *Ar+             0.05057  0.08790  0.13871  0.20033  0.26651  0.32912  0.38142  0.00000

  * THERMODYNAMIC PROPERTIES FITTED TO 20000.K

 NOTE. WEIGHT FRACTION OF FUEL IN TOTAL FUELS AND OF OXIDANT IN TOTAL OXIDANTS









               THERMODYNAMIC EQUILIBRIUM PROPERTIES AT ASSIGNED

                           TEMPERATURE AND PRESSURE

 CASE = _______________

             REACTANT                    WT FRACTION      ENERGY      TEMP
                                          (SEE NOTE)     KJ/KG-MOL      K  
 FUEL        Ar                           1.0000000         0.000      0.000
 OXIDANT     Ar                           1.0000000         0.000      0.000

 O/F=    1.00000  %FUEL= 50.000000  R,EQ.RATIO= 0.000000  PHI,EQ.RATIO= 0.000000

 THERMODYNAMIC PROPERTIES

 P, BAR            25.000   25.000   25.000   25.000   25.000   25.000   25.000   25.000
 T, K             2000.00  3000.00  4000.00  5000.00  6000.00  7000.00  8000.00  9000.00
 RHO, KG/CU M    6.0058 0 4.0038 0 3.0029 0 2.4023 0 2.0019 0 1.7158 0 1.5010 0 1.3329 0
 H, KJ/KG          885.53  1405.86  1926.20  2446.54  2966.92  3490.00  4021.01  4584.16
 U, KJ/KG          469.26   781.46  1093.66  1405.87  1718.12  2032.99  2355.42  2708.51
 G, KJ/KG        -7507.68 -11816.9 -16302.9 -20920.4 -25642.7 -30452.2 -35337.2 -40290.2
 S, KJ/(KG)(K)     4.1966   4.4076   4.5573   4.6734   4.7683   4.8489   4.9198   4.9860

 M, (1/n)          39.948   39.948   39.948   39.948   39.948   39.946   39.935   39.896
 (dLV/dLP)t      -1.00000 -1.00000 -1.00000 -1.00000 -1.00000 -1.00003 -1.00016 -1.00065
 (dLV/dLT)p        1.0000   1.0000   1.0000   1.0000   1.0000   1.0007   1.0040   1.0150
 Cp, KJ/(KG)(K)    0.5203   0.5203   0.5203   0.5204   0.5205   0.5248   0.5412   0.5933
 GAMMAs            1.6667   1.6667   1.6667   1.6666   1.6664   1.6589   1.6330   1.5655
 SON VEL,M/SEC      832.9   1020.1   1177.9   1317.0   1442.6   1554.7   1649.2   1713.6

 MOLE FRACTIONS

 *e-              0.00000  0.00000  0.00000  0.00000  0.00000  0.00005  0.00032  0.00131
 *Ar              1.00000  1.00000  1.00000  1.00000  1.00000  0.99990  0.99937  0.99738
 *Ar+             0.00000  0.00000  0.00000  0.00000  0.00000  0.00005  0.00032  0.00131

  * THERMODYNAMIC PROPERTIES FITTED TO 20000.K

 NOTE. WEIGHT FRACTION OF FUEL IN TOTAL FUELS AND OF OXIDANT IN TOTAL OXIDANTS









               THERMODYNAMIC EQUILIBRIUM PROPERTIES AT ASSIGNED

                           TEMPERATURE AND PRESSURE

 CASE = _______________

             REACTANT                    WT FRACTION      ENERGY      TEMP
                                          (SEE NOTE)     KJ/KG-MOL      K  
 FUEL        Ar                           1.0000000         0.000      0.000
 OXIDANT     Ar                           1.0000000         0.000      0.000

 O/F=    1.00000  %FUEL= 50.000000  R,EQ.RATIO= 0.000000  PHI,EQ.RATIO= 0.000000

 THERMODYNAMIC PROPERTIES

 P, BAR            25.000   25.000   25.000   25.000   25.000   25.000   25.000   25.000
 T, K            10000.00 11000.00 12000.00 13000.00 14000.00 15000.00 16000.00 17000.00
 RHO, KG/CU M    1.1962 0 1.0804 0 9.7753-1 8.8194-1 7.8983-1 6.9971-1 6.1259-1 5.3150-1
 H, KJ/KG         5229.72  6045.56  7167.33  8781.25  11115.5  14411.6  18858.7  24477.4
 U, KJ/KG         3139.77  3731.52  4609.85  5946.58  7950.30  10838.8  14777.7  19773.8
 G, KJ/KG        -45309.8 -50401.3 -55579.4 -60869.6 -66309.5 -71948.5 -77844.2 -84054.5
 S, KJ/(KG)(K)     5.0539   5.1315   5.2289   5.3578   5.5304   5.7573   6.0439   6.3842

 M, (1/n)          39.783   39.524   39.013   38.131   36.775   34.907   32.598   30.050
 (dLV/dLP)t      -1.00206 -1.00531 -1.01170 -1.02269 -1.03941 -1.06178 -1.08732 -1.11044
 (dLV/dLT)p        1.0430   1.1018   1.2081   1.3768   1.6142   1.9076   2.2133   2.4550
 Cp, KJ/(KG)(K)    0.7123   0.9419   1.3328   1.9335   2.7763   3.8494   5.0508   6.1402
 GAMMAs            1.4643   1.3621   1.2848   1.2362   1.2089   1.1953   1.1905   1.1921
 SON VEL,M/SEC     1749.4   1775.4   1812.7   1872.0   1956.1   2066.6   2204.2   2368.0

 MOLE FRACTIONS

 *e-              0.00412  0.01062  0.02341  0.04549  0.07942  0.12620  0.18400  0.24776
 *Ar              0.99176  0.97876  0.95317  0.90903  0.84116  0.74761  0.63200  0.50448
 *Ar+             0.00412  0.01062  0.02341  0.04549  0.07942  0.12620  0.18400  0.24776

  * THERMODYNAMIC PROPERTIES FITTED TO 20000.K

 NOTE. WEIGHT FRACTION OF FUEL IN TOTAL FUELS AND OF OXIDANT IN TOTAL OXIDANTS









               THERMODYNAMIC EQUILIBRIUM PROPERTIES AT ASSIGNED

                           TEMPERATURE AND PRESSURE

 CASE = _______________

             REACTANT                    WT FRACTION      ENERGY      TEMP
                                          (SEE NOTE)     KJ/KG-MOL      K  
 FUEL        Ar                           1.0000000         0.000      0.000
 OXIDANT     Ar                           1.0000000         0.000      0.000

 O/F=    1.00000  %FUEL= 50.000000  R,EQ.RATIO= 0.000000  PHI,EQ.RATIO= 0.000000

 THERMODYNAMIC PROPERTIES

 P, BAR            25.000   25.000
 T, K            18000.00 19000.00
 RHO, KG/CU M    4.6029-1 4.0171-1
 H, KJ/KG         30983.9  37763.3
 U, KJ/KG         25552.6  31539.9
 G, KJ/KG        -90623.3 -97564.7
 S, KJ/(KG)(K)     6.7560   7.1225

 M, (1/n)          27.555   25.384
 (dLV/dLP)t      -1.12374 -1.12228
 (dLV/dLT)p        2.5489   2.4566
 Cp, KJ/(KG)(K)    6.7665   6.6640
 GAMMAs            1.1990   1.2112
 SON VEL,M/SEC     2551.9   2745.5

 MOLE FRACTIONS

 *e-              0.31022  0.36458
 *Ar              0.37956  0.27085
 *Ar+             0.31022  0.36458

  * THERMODYNAMIC PROPERTIES FITTED TO 20000.K

 NOTE. WEIGHT FRACTION OF FUEL IN TOTAL FUELS AND OF OXIDANT IN TOTAL OXIDANTS

